2132
     RDKit          2D

 18 19  0  0  0  0  0  0  0  0999 V2000
   10.3312    0.7500    0.0000 Br  0  0  0  0  0  0  0  0  0  0  0  0
    8.5991   -2.2500    0.0000 Br  0  0  0  0  0  0  0  0  0  0  0  0
    2.5369    2.2500    0.0000 O   0  0  0  0  0  0  0  0  0  0  0  0
    6.0010    0.2500    0.0000 N   0  0  0  0  0  0  0  0  0  0  0  0
    8.5991    1.7500    0.0000 N   0  0  0  0  0  0  0  0  0  0  0  0
    5.1350    0.7500    0.0000 C   0  0  0  0  0  0  0  0  0  0  0  0
    5.1350    1.7500    0.0000 C   0  0  0  0  0  0  0  0  0  0  0  0
    4.2690    0.2500    0.0000 C   0  0  0  0  0  0  0  0  0  0  0  0
    4.2690    2.2500    0.0000 C   0  0  0  0  0  0  0  0  0  0  0  0
    3.4030    0.7500    0.0000 C   0  0  0  0  0  0  0  0  0  0  0  0
    3.4030    1.7500    0.0000 C   0  0  0  0  0  0  0  0  0  0  0  0
    6.8671    0.7500    0.0000 C   0  0  0  0  0  0  0  0  0  0  0  0
    7.7331    0.2500    0.0000 C   0  0  0  0  0  0  0  0  0  0  0  0
    8.5991    0.7500    0.0000 C   0  0  0  0  0  0  0  0  0  0  0  0
    7.7331   -0.7500    0.0000 C   0  0  0  0  0  0  0  0  0  0  0  0
    9.4651    0.2500    0.0000 C   0  0  0  0  0  0  0  0  0  0  0  0
    8.5991   -1.2500    0.0000 C   0  0  0  0  0  0  0  0  0  0  0  0
    9.4651   -0.7500    0.0000 C   0  0  0  0  0  0  0  0  0  0  0  0
  1 16  1  0
  2 17  1  0
  3 11  1  0
  4  6  1  0
  4 12  1  0
  5 14  1  0
  6  7  1  0
  6  8  1  0
  7  9  1  0
  8 10  1  0
  9 11  1  0
 10 11  1  0
 12 13  1  0
 13 14  2  0
 13 15  1  0
 14 16  1  0
 15 17  2  0
 16 18  2  0
 17 18  1  0
M  END
>  <PUBCHEM_COMPOUND_CID>  (1) 
2132

>  <PUBCHEM_COMPOUND_CANONICALIZED>  (1) 
1

>  <PUBCHEM_CACTVS_COMPLEXITY>  (1) 
259

>  <PUBCHEM_CACTVS_HBOND_ACCEPTOR>  (1) 
3

>  <PUBCHEM_CACTVS_HBOND_DONOR>  (1) 
3

>  <PUBCHEM_CACTVS_ROTATABLE_BOND>  (1) 
3

>  <PUBCHEM_CACTVS_SUBSKEYS>  (1) 
AAADceBzIAAAGAAAAAAAAAAAAAAAAAAAAAAwYAAAAAAAAAABAAAAHgBQCAABrDzhmAYwwILAAgCAAiRCQACCAAAgAAQAiIAIRKgIMCKA0ZGEYAhkkACIyhewwAAOAAAgEAAiAAgAgEAgAEQAEAAAAAAAAA==

>  <PUBCHEM_IUPAC_OPENEYE_NAME>  (1) 
4-[(2-amino-3,5-dibromo-phenyl)methylamino]cyclohexanol

>  <PUBCHEM_IUPAC_CAS_NAME>  (1) 
4-[(2-amino-3,5-dibromophenyl)methylamino]-1-cyclohexanol

>  <PUBCHEM_IUPAC_NAME_MARKUP>  (1) 
4-[(2-amino-3,5-dibromophenyl)methylamino]cyclohexan-1-ol

>  <PUBCHEM_IUPAC_NAME>  (1) 
4-[(2-amino-3,5-dibromophenyl)methylamino]cyclohexan-1-ol

>  <PUBCHEM_IUPAC_SYSTEMATIC_NAME>  (1) 
4-[[2-azanyl-3,5-bis(bromanyl)phenyl]methylamino]cyclohexan-1-ol

>  <PUBCHEM_IUPAC_TRADITIONAL_NAME>  (1) 
4-[(2-amino-3,5-dibromo-benzyl)amino]cyclohexanol

>  <PUBCHEM_IUPAC_INCHI>  (1) 
InChI=1S/C13H18Br2N2O/c14-9-5-8(13(16)12(15)6-9)7-17-10-1-3-11(18)4-2-10/h5-6,10-11,17-18H,1-4,7,16H2

>  <PUBCHEM_IUPAC_INCHIKEY>  (1) 
JBDGDEWWOUBZPM-UHFFFAOYSA-N

>  <PUBCHEM_XLOGP3_AA>  (1) 
2.6

>  <PUBCHEM_EXACT_MASS>  (1) 
377.97654

>  <PUBCHEM_MOLECULAR_FORMULA>  (1) 
C13H18Br2N2O

>  <PUBCHEM_MOLECULAR_WEIGHT>  (1) 
378.10

>  <PUBCHEM_OPENEYE_CAN_SMILES>  (1) 
C1CC(CCC1NCC2=C(C(=CC(=C2)Br)Br)N)O

>  <PUBCHEM_OPENEYE_ISO_SMILES>  (1) 
C1CC(CCC1NCC2=C(C(=CC(=C2)Br)Br)N)O

>  <PUBCHEM_CACTVS_TPSA>  (1) 
58.3

>  <PUBCHEM_MONOISOTOPIC_WEIGHT>  (1) 
375.97859

>  <PUBCHEM_TOTAL_CHARGE>  (1) 
0

>  <PUBCHEM_HEAVY_ATOM_COUNT>  (1) 
18

>  <PUBCHEM_ATOM_DEF_STEREO_COUNT>  (1) 
0

>  <PUBCHEM_ATOM_UDEF_STEREO_COUNT>  (1) 
0

>  <PUBCHEM_BOND_DEF_STEREO_COUNT>  (1) 
0

>  <PUBCHEM_BOND_UDEF_STEREO_COUNT>  (1) 
0

>  <PUBCHEM_ISOTOPIC_ATOM_COUNT>  (1) 
0

>  <PUBCHEM_COMPONENT_COUNT>  (1) 
1

>  <PUBCHEM_CACTVS_TAUTO_COUNT>  (1) 
-1

>  <PUBCHEM_COORDINATE_TYPE>  (1) 
1
5
255

>  <PUBCHEM_BONDANNOTATIONS>  (1) 
13  14  8
13  15  8
14  16  8
15  17  8
16  18  8
17  18  8

$$$$
2160
     RDKit          2D

 21 23  0  0  0  0  0  0  0  0999 V2000
    3.1509   -2.0953    0.0000 N   0  0  0  0  0  0  0  0  0  0  0  0
    4.3830    3.0953    0.0000 C   0  0  0  0  0  0  0  0  0  0  0  0
    5.3830    3.0953    0.0000 C   0  0  0  0  0  0  0  0  0  0  0  0
    4.8830    0.9047    0.0000 C   0  0  0  0  0  0  0  0  0  0  0  0
    3.7595    2.3135    0.0000 C   0  0  0  0  0  0  0  0  0  0  0  0
    6.0065    2.3135    0.0000 C   0  0  0  0  0  0  0  0  0  0  0  0
    3.9820    1.3386    0.0000 C   0  0  0  0  0  0  0  0  0  0  0  0
    5.7840    1.3385    0.0000 C   0  0  0  0  0  0  0  0  0  0  0  0
    4.8830   -0.0953    0.0000 C   0  0  0  0  0  0  0  0  0  0  0  0
    4.0170   -0.5953    0.0000 C   0  0  0  0  0  0  0  0  0  0  0  0
    2.7690    2.6358    0.0000 C   0  0  0  0  0  0  0  0  0  0  0  0
    6.9970    2.6358    0.0000 C   0  0  0  0  0  0  0  0  0  0  0  0
    3.2295    0.6184    0.0000 C   0  0  0  0  0  0  0  0  0  0  0  0
    6.5365    0.6184    0.0000 C   0  0  0  0  0  0  0  0  0  0  0  0
    4.0169   -1.5953    0.0000 C   0  0  0  0  0  0  0  0  0  0  0  0
    2.0000    1.9333    0.0000 C   0  0  0  0  0  0  0  0  0  0  0  0
    7.7660    1.9332    0.0000 C   0  0  0  0  0  0  0  0  0  0  0  0
    2.2318    0.9177    0.0000 C   0  0  0  0  0  0  0  0  0  0  0  0
    7.5342    0.9177    0.0000 C   0  0  0  0  0  0  0  0  0  0  0  0
    3.1509   -3.0953    0.0000 C   0  0  0  0  0  0  0  0  0  0  0  0
    2.2849   -1.5953    0.0000 C   0  0  0  0  0  0  0  0  0  0  0  0
  1 15  1  0
  1 20  1  0
  1 21  1  0
  2  3  1  0
  2  5  1  0
  3  6  1  0
  4  7  1  0
  4  8  1  0
  4  9  2  0
  5  7  2  0
  5 11  1  0
  6  8  2  0
  6 12  1  0
  7 13  1  0
  8 14  1  0
  9 10  1  0
 10 15  1  0
 11 16  2  0
 12 17  2  0
 13 18  2  0
 14 19  2  0
 16 18  1  0
 17 19  1  0
M  END
>  <PUBCHEM_COMPOUND_CID>  (2) 
2160

>  <PUBCHEM_COMPOUND_CANONICALIZED>  (2) 
1

>  <PUBCHEM_CACTVS_COMPLEXITY>  (2) 
331

>  <PUBCHEM_CACTVS_HBOND_ACCEPTOR>  (2) 
1

>  <PUBCHEM_CACTVS_HBOND_DONOR>  (2) 
0

>  <PUBCHEM_CACTVS_ROTATABLE_BOND>  (2) 
3

>  <PUBCHEM_CACTVS_SUBSKEYS>  (2) 
AAADceB6AAAAAAAAAAAAAAAAAAAAAAAAAAAwYAAABgAAAAABQAAAHAAAAAAADADBGAQyAIMAAACAAiBCAAACAAAgAAAIiAAIAIgIICKAERCEIAAggAAIiAcAgMAOgAAAAAAQAAAAAAAAACAAAAAAAAAAAA==

>  <PUBCHEM_IUPAC_OPENEYE_NAME>  (2) 
N,N-dimethyl-3-(2-tricyclo[9.4.0.03,8]pentadeca-1(15),3,5,7,11,13-hexaenylidene)propan-1-amine

>  <PUBCHEM_IUPAC_CAS_NAME>  (2) 
N,N-dimethyl-3-(2-tricyclo[9.4.0.03,8]pentadeca-1(15),3,5,7,11,13-hexaenylidene)-1-propanamine

>  <PUBCHEM_IUPAC_NAME_MARKUP>  (2) 
<I>N</I>,<I>N</I>-dimethyl-3-(2-tricyclo[9.4.0.0<SUP>3,8</SUP>]pentadeca-1(15),3,5,7,11,13-hexaenylidene)propan-1-amine

>  <PUBCHEM_IUPAC_NAME>  (2) 
N,N-dimethyl-3-(2-tricyclo[9.4.0.03,8]pentadeca-1(15),3,5,7,11,13-hexaenylidene)propan-1-amine

>  <PUBCHEM_IUPAC_SYSTEMATIC_NAME>  (2) 
N,N-dimethyl-3-(2-tricyclo[9.4.0.03,8]pentadeca-1(15),3,5,7,11,13-hexaenylidene)propan-1-amine

>  <PUBCHEM_IUPAC_TRADITIONAL_NAME>  (2) 
dimethyl-[3-(2-tricyclo[9.4.0.03,8]pentadeca-1(15),3,5,7,11,13-hexaenylidene)propyl]amine

>  <PUBCHEM_IUPAC_INCHI>  (2) 
InChI=1S/C20H23N/c1-21(2)15-7-12-20-18-10-5-3-8-16(18)13-14-17-9-4-6-11-19(17)20/h3-6,8-12H,7,13-15H2,1-2H3

>  <PUBCHEM_IUPAC_INCHIKEY>  (2) 
KRMDCWKBEZIMAB-UHFFFAOYSA-N

>  <PUBCHEM_XLOGP3>  (2) 
5

>  <PUBCHEM_EXACT_MASS>  (2) 
277.183049738

>  <PUBCHEM_MOLECULAR_FORMULA>  (2) 
C20H23N

>  <PUBCHEM_MOLECULAR_WEIGHT>  (2) 
277.4

>  <PUBCHEM_OPENEYE_CAN_SMILES>  (2) 
CN(C)CCC=C1C2=CC=CC=C2CCC3=CC=CC=C31

>  <PUBCHEM_OPENEYE_ISO_SMILES>  (2) 
CN(C)CCC=C1C2=CC=CC=C2CCC3=CC=CC=C31

>  <PUBCHEM_CACTVS_TPSA>  (2) 
3.2

>  <PUBCHEM_MONOISOTOPIC_WEIGHT>  (2) 
277.183049738

>  <PUBCHEM_TOTAL_CHARGE>  (2) 
0

>  <PUBCHEM_HEAVY_ATOM_COUNT>  (2) 
21

>  <PUBCHEM_ATOM_DEF_STEREO_COUNT>  (2) 
0

>  <PUBCHEM_ATOM_UDEF_STEREO_COUNT>  (2) 
0

>  <PUBCHEM_BOND_DEF_STEREO_COUNT>  (2) 
0

>  <PUBCHEM_BOND_UDEF_STEREO_COUNT>  (2) 
0

>  <PUBCHEM_ISOTOPIC_ATOM_COUNT>  (2) 
0

>  <PUBCHEM_COMPONENT_COUNT>  (2) 
1

>  <PUBCHEM_CACTVS_TAUTO_COUNT>  (2) 
1

>  <PUBCHEM_COORDINATE_TYPE>  (2) 
1
5
255

>  <PUBCHEM_BONDANNOTATIONS>  (2) 
11  16  8
12  17  8
13  18  8
14  19  8
16  18  8
17  19  8
5  11  8
5  7  8
6  12  8
6  8  8
7  13  8
8  14  8

$$$$
8775
     RDKit          2D

 18 19  0  0  0  0  0  0  0  0999 V2000
    6.0010   -0.5000    0.0000 As  0  0  0  0  0  3  0  0  0  0  0  0
    6.0010    0.5000    0.0000 As  0  0  0  0  0  3  0  0  0  0  0  0
    9.4651   -2.5000    0.0000 O   0  0  0  0  0  0  0  0  0  0  0  0
    2.5369    2.5000    0.0000 O   0  0  0  0  0  0  0  0  0  0  0  0
    7.7331   -3.5000    0.0000 N   0  0  0  0  0  0  0  0  0  0  0  0
    4.2690    3.5000    0.0000 N   0  0  0  0  0  0  0  0  0  0  0  0
    6.8671   -1.0000    0.0000 C   0  0  0  0  0  0  0  0  0  0  0  0
    5.1350    1.0000    0.0000 C   0  0  0  0  0  0  0  0  0  0  0  0
    7.7331   -2.5000    0.0000 C   0  0  0  0  0  0  0  0  0  0  0  0
    4.2690    2.5000    0.0000 C   0  0  0  0  0  0  0  0  0  0  0  0
    6.8671   -2.0000    0.0000 C   0  0  0  0  0  0  0  0  0  0  0  0
    5.1350    2.0000    0.0000 C   0  0  0  0  0  0  0  0  0  0  0  0
    8.5991   -2.0000    0.0000 C   0  0  0  0  0  0  0  0  0  0  0  0
    3.4030    2.0000    0.0000 C   0  0  0  0  0  0  0  0  0  0  0  0
    7.7331   -0.5000    0.0000 C   0  0  0  0  0  0  0  0  0  0  0  0
    4.2690    0.5000    0.0000 C   0  0  0  0  0  0  0  0  0  0  0  0
    8.5991   -1.0000    0.0000 C   0  0  0  0  0  0  0  0  0  0  0  0
    3.4030    1.0000    0.0000 C   0  0  0  0  0  0  0  0  0  0  0  0
  1  2  2  0
  1  7  1  0
  2  8  1  0
  3 13  1  0
  4 14  1  0
  5  9  1  0
  6 10  1  0
  7 11  1  0
  7 15  2  0
  8 12  1  0
  8 16  2  0
  9 11  2  0
  9 13  1  0
 10 12  2  0
 10 14  1  0
 13 17  2  0
 14 18  2  0
 15 17  1  0
 16 18  1  0
M  END
>  <PUBCHEM_COMPOUND_CID>  (3) 
8775

>  <PUBCHEM_COMPOUND_CANONICALIZED>  (3) 
1

>  <PUBCHEM_CACTVS_COMPLEXITY>  (3) 
276

>  <PUBCHEM_CACTVS_HBOND_ACCEPTOR>  (3) 
4

>  <PUBCHEM_CACTVS_HBOND_DONOR>  (3) 
4

>  <PUBCHEM_CACTVS_ROTATABLE_BOND>  (3) 
2

>  <PUBCHEM_CACTVS_SUBSKEYS>  (3) 
AAADccBzMAAAAAAAQAAAAAAAAAAAAAAAAAAwYAAAAAAAAAABQAAAHgEQCAACCAyBkAAwxoBAAgCAACRCQACCAAAgIgAIjAAHbIgKJiKSkZOAcABk0BEI2AeQQAAAAAAAAAAAEAAAAAAAAAAgAAAAAAAAAA==

>  <PUBCHEM_IUPAC_OPENEYE_NAME>  (3) 
2-amino-4-(3-amino-4-hydroxy-phenyl)arsanylidenearsanyl-phenol

>  <PUBCHEM_IUPAC_CAS_NAME>  (3) 
2-amino-4-(3-amino-4-hydroxyphenyl)arsinylidenearsinylphenol

>  <PUBCHEM_IUPAC_NAME_MARKUP>  (3) 
2-amino-4-(3-amino-4-hydroxyphenyl)arsanylidenearsanylphenol

>  <PUBCHEM_IUPAC_NAME>  (3) 
2-amino-4-(3-amino-4-hydroxyphenyl)arsanylidenearsanylphenol

>  <PUBCHEM_IUPAC_SYSTEMATIC_NAME>  (3) 
2-azanyl-4-(3-azanyl-4-oxidanyl-phenyl)arsanylidenearsanyl-phenol

>  <PUBCHEM_IUPAC_TRADITIONAL_NAME>  (3) 
2-amino-4-(3-amino-4-hydroxy-phenyl)arsinylidenearsinyl-phenol

>  <PUBCHEM_IUPAC_INCHI>  (3) 
InChI=1S/C12H12As2N2O2/c15-9-5-7(1-3-11(9)17)13-14-8-2-4-12(18)10(16)6-8/h1-6,17-18H,15-16H2

>  <PUBCHEM_IUPAC_INCHIKEY>  (3) 
ZCZNGRXPMRPERV-UHFFFAOYSA-N

>  <PUBCHEM_EXACT_MASS>  (3) 
365.93307

>  <PUBCHEM_MOLECULAR_FORMULA>  (3) 
C12H12As2N2O2

>  <PUBCHEM_MOLECULAR_WEIGHT>  (3) 
366.08

>  <PUBCHEM_OPENEYE_CAN_SMILES>  (3) 
C1=CC(=C(C=C1[As]=[As]C2=CC(=C(C=C2)O)N)N)O

>  <PUBCHEM_OPENEYE_ISO_SMILES>  (3) 
C1=CC(=C(C=C1[As]=[As]C2=CC(=C(C=C2)O)N)N)O

>  <PUBCHEM_CACTVS_TPSA>  (3) 
92.5

>  <PUBCHEM_MONOISOTOPIC_WEIGHT>  (3) 
365.93307

>  <PUBCHEM_TOTAL_CHARGE>  (3) 
0

>  <PUBCHEM_HEAVY_ATOM_COUNT>  (3) 
18

>  <PUBCHEM_ATOM_DEF_STEREO_COUNT>  (3) 
0

>  <PUBCHEM_ATOM_UDEF_STEREO_COUNT>  (3) 
0

>  <PUBCHEM_BOND_DEF_STEREO_COUNT>  (3) 
0

>  <PUBCHEM_BOND_UDEF_STEREO_COUNT>  (3) 
0

>  <PUBCHEM_ISOTOPIC_ATOM_COUNT>  (3) 
0

>  <PUBCHEM_COMPONENT_COUNT>  (3) 
1

>  <PUBCHEM_CACTVS_TAUTO_COUNT>  (3) 
9

>  <PUBCHEM_COORDINATE_TYPE>  (3) 
1
5
255

>  <PUBCHEM_BONDANNOTATIONS>  (3) 
10  12  8
10  14  8
13  17  8
14  18  8
15  17  8
16  18  8
7  11  8
7  15  8
8  12  8
8  16  8
9  11  8
9  13  8

$$$$
2244
     RDKit          2D

 13 13  0  0  0  0  0  0  0  0999 V2000
    3.7320   -0.0600    0.0000 O   0  0  0  0  0  0  0  0  0  0  0  0
    6.3301    1.4400    0.0000 O   0  0  0  0  0  0  0  0  0  0  0  0
    4.5981    1.4400    0.0000 O   0  0  0  0  0  0  0  0  0  0  0  0
    2.8660   -1.5600    0.0000 O   0  0  0  0  0  0  0  0  0  0  0  0
    4.5981   -0.5600    0.0000 C   0  0  0  0  0  0  0  0  0  0  0  0
    5.4641   -0.0600    0.0000 C   0  0  0  0  0  0  0  0  0  0  0  0
    4.5981   -1.5600    0.0000 C   0  0  0  0  0  0  0  0  0  0  0  0
    6.3301   -0.5600    0.0000 C   0  0  0  0  0  0  0  0  0  0  0  0
    5.4641   -2.0600    0.0000 C   0  0  0  0  0  0  0  0  0  0  0  0
    6.3301   -1.5600    0.0000 C   0  0  0  0  0  0  0  0  0  0  0  0
    5.4641    0.9400    0.0000 C   0  0  0  0  0  0  0  0  0  0  0  0
    2.8660   -0.5600    0.0000 C   0  0  0  0  0  0  0  0  0  0  0  0
    2.0000   -0.0600    0.0000 C   0  0  0  0  0  0  0  0  0  0  0  0
  1  5  1  0
  1 12  1  0
  2 11  1  0
  3 11  2  0
  4 12  2  0
  5  6  2  0
  5  7  1  0
  6  8  1  0
  6 11  1  0
  7  9  2  0
  8 10  2  0
  9 10  1  0
 12 13  1  0
M  END
>  <PUBCHEM_COMPOUND_CID>  (4) 
2244

>  <PUBCHEM_COMPOUND_CANONICALIZED>  (4) 
1

>  <PUBCHEM_CACTVS_COMPLEXITY>  (4) 
212

>  <PUBCHEM_CACTVS_HBOND_ACCEPTOR>  (4) 
4

>  <PUBCHEM_CACTVS_HBOND_DONOR>  (4) 
1

>  <PUBCHEM_CACTVS_ROTATABLE_BOND>  (4) 
3

>  <PUBCHEM_CACTVS_SUBSKEYS>  (4) 
AAADccBwOAAAAAAAAAAAAAAAAAAAAAAAAAAwAAAAAAAAAAABAAAAGgAACAAADASAmAAyDoAABgCIAiDSCAACCAAkIAAIiAEGCMgMJzaENRqCe2Cl4BEIuYeIyCCOAAAAAAAIAAAAAAAAABAAAAAAAAAAAA==

>  <PUBCHEM_IUPAC_OPENEYE_NAME>  (4) 
2-acetoxybenzoic acid

>  <PUBCHEM_IUPAC_CAS_NAME>  (4) 
2-acetyloxybenzoic acid

>  <PUBCHEM_IUPAC_NAME_MARKUP>  (4) 
2-acetyloxybenzoic acid

>  <PUBCHEM_IUPAC_NAME>  (4) 
2-acetyloxybenzoic acid

>  <PUBCHEM_IUPAC_SYSTEMATIC_NAME>  (4) 
2-acetyloxybenzoic acid

>  <PUBCHEM_IUPAC_TRADITIONAL_NAME>  (4) 
2-acetoxybenzoic acid

>  <PUBCHEM_IUPAC_INCHI>  (4) 
InChI=1S/C9H8O4/c1-6(10)13-8-5-3-2-4-7(8)9(11)12/h2-5H,1H3,(H,11,12)

>  <PUBCHEM_IUPAC_INCHIKEY>  (4) 
BSYNRYMUTXBXSQ-UHFFFAOYSA-N

>  <PUBCHEM_XLOGP3>  (4) 
1.2

>  <PUBCHEM_EXACT_MASS>  (4) 
180.04225873

>  <PUBCHEM_MOLECULAR_FORMULA>  (4) 
C9H8O4

>  <PUBCHEM_MOLECULAR_WEIGHT>  (4) 
180.16

>  <PUBCHEM_OPENEYE_CAN_SMILES>  (4) 
CC(=O)OC1=CC=CC=C1C(=O)O

>  <PUBCHEM_OPENEYE_ISO_SMILES>  (4) 
CC(=O)OC1=CC=CC=C1C(=O)O

>  <PUBCHEM_CACTVS_TPSA>  (4) 
63.6

>  <PUBCHEM_MONOISOTOPIC_WEIGHT>  (4) 
180.04225873

>  <PUBCHEM_TOTAL_CHARGE>  (4) 
0

>  <PUBCHEM_HEAVY_ATOM_COUNT>  (4) 
13

>  <PUBCHEM_ATOM_DEF_STEREO_COUNT>  (4) 
0

>  <PUBCHEM_ATOM_UDEF_STEREO_COUNT>  (4) 
0

>  <PUBCHEM_BOND_DEF_STEREO_COUNT>  (4) 
0

>  <PUBCHEM_BOND_UDEF_STEREO_COUNT>  (4) 
0

>  <PUBCHEM_ISOTOPIC_ATOM_COUNT>  (4) 
0

>  <PUBCHEM_COMPONENT_COUNT>  (4) 
1

>  <PUBCHEM_CACTVS_TAUTO_COUNT>  (4) 
-1

>  <PUBCHEM_COORDINATE_TYPE>  (4) 
1
5
255

>  <PUBCHEM_BONDANNOTATIONS>  (4) 
5  6  8
5  7  8
6  8  8
7  9  8
8  10  8
9  10  8

$$$$
60823
     RDKit          2D

 41 44  0  0  1  0  0  0  0  0999 V2000
   10.1755   -4.8965    0.0000 F   0  0  0  0  0  0  0  0  0  0  0  0
    6.5133   -1.2358    0.0000 O   0  0  0  0  0  0  0  0  0  0  0  0
    4.8191   -0.8756    0.0000 O   0  0  0  0  0  0  0  0  0  0  0  0
   12.2578    1.3468    0.0000 O   0  0  0  0  0  0  0  0  0  0  0  0
    2.5896    1.1318    0.0000 O   0  0  0  0  0  0  0  0  0  0  0  0
    3.1249   -0.5155    0.0000 O   0  0  0  0  0  0  0  0  0  0  0  0
    9.3665   -0.3087    0.0000 N   0  0  0  0  0  0  0  0  0  0  0  0
   10.8565    2.3649    0.0000 N   0  0  0  0  0  0  0  0  0  0  0  0
    9.6755    0.6424    0.0000 C   0  0  0  0  0  0  0  0  0  0  0  0
    8.4154   -0.6177    0.0000 C   0  0  0  0  0  0  0  0  0  0  0  0
   10.1755   -0.8965    0.0000 C   0  0  0  0  0  0  0  0  0  0  0  0
    9.0877    1.4514    0.0000 C   0  0  0  0  0  0  0  0  0  0  0  0
    7.6723    0.0514    0.0000 C   0  0  0  0  0  0  0  0  0  0  0  0
   10.6755    0.6424    0.0000 C   0  0  0  0  0  0  0  0  0  0  0  0
   10.9845   -0.3087    0.0000 C   0  0  0  0  0  0  0  0  0  0  0  0
    6.7212   -0.2576    0.0000 C   0  0  0  0  0  0  0  0  0  0  0  0
    5.9781    0.4115    0.0000 C   0  0  0  0  0  0  0  0  0  0  0  0
   10.1755   -1.8965    0.0000 C   0  0  0  0  0  0  0  0  0  0  0  0
    8.0932    1.3468    0.0000 C   0  0  0  0  0  0  0  0  0  0  0  0
    9.4944    2.3649    0.0000 C   0  0  0  0  0  0  0  0  0  0  0  0
   11.9356   -0.6177    0.0000 C   0  0  0  0  0  0  0  0  0  0  0  0
    5.0270    0.1025    0.0000 C   0  0  0  0  0  0  0  0  0  0  0  0
   11.2633    1.4514    0.0000 C   0  0  0  0  0  0  0  0  0  0  0  0
    4.2839    0.7716    0.0000 C   0  0  0  0  0  0  0  0  0  0  0  0
   11.0415   -2.3965    0.0000 C   0  0  0  0  0  0  0  0  0  0  0  0
    9.3094   -2.3965    0.0000 C   0  0  0  0  0  0  0  0  0  0  0  0
   12.6787    0.0514    0.0000 C   0  0  0  0  0  0  0  0  0  0  0  0
   12.1435   -1.5959    0.0000 C   0  0  0  0  0  0  0  0  0  0  0  0
   11.0415   -3.3965    0.0000 C   0  0  0  0  0  0  0  0  0  0  0  0
    9.3094   -3.3965    0.0000 C   0  0  0  0  0  0  0  0  0  0  0  0
   13.6298   -0.2576    0.0000 C   0  0  0  0  0  0  0  0  0  0  0  0
   13.0945   -1.9049    0.0000 C   0  0  0  0  0  0  0  0  0  0  0  0
   10.1755   -3.8965    0.0000 C   0  0  0  0  0  0  0  0  0  0  0  0
   11.4443    3.1739    0.0000 C   0  0  0  0  0  0  0  0  0  0  0  0
    3.3328    0.4626    0.0000 C   0  0  0  0  0  0  0  0  0  0  0  0
   13.8377   -1.2358    0.0000 C   0  0  0  0  0  0  0  0  0  0  0  0
   11.0376    4.0875    0.0000 C   0  0  0  0  0  0  0  0  0  0  0  0
   12.4388    3.0694    0.0000 C   0  0  0  0  0  0  0  0  0  0  0  0
   11.6254    4.8965    0.0000 C   0  0  0  0  0  0  0  0  0  0  0  0
   13.0266    3.8784    0.0000 C   0  0  0  0  0  0  0  0  0  0  0  0
   12.6199    4.7920    0.0000 C   0  0  0  0  0  0  0  0  0  0  0  0
  1 33  1  0
 16  2  1  1
 22  3  1  1
  4 23  2  0
  5 35  1  0
  6 35  2  0
  7  9  1  0
  7 10  1  0
  7 11  1  0
  8 23  1  0
  8 34  1  0
  9 12  1  0
  9 14  2  0
 10 13  1  0
 11 15  2  0
 11 18  1  0
 12 19  1  0
 12 20  1  0
 13 16  1  0
 14 15  1  0
 14 23  1  0
 15 21  1  0
 16 17  1  0
 17 22  1  0
 18 25  2  0
 18 26  1  0
 21 27  2  0
 21 28  1  0
 22 24  1  0
 24 35  1  0
 25 29  1  0
 26 30  2  0
 27 31  1  0
 28 32  2  0
 29 33  2  0
 30 33  1  0
 31 36  2  0
 32 36  1  0
 34 37  2  0
 34 38  1  0
 37 39  1  0
 38 40  2  0
 39 41  2  0
 40 41  1  0
M  END
>  <PUBCHEM_COMPOUND_CID>  (5) 
60823

>  <PUBCHEM_COMPOUND_CANONICALIZED>  (5) 
1

>  <PUBCHEM_CACTVS_COMPLEXITY>  (5) 
822

>  <PUBCHEM_CACTVS_HBOND_ACCEPTOR>  (5) 
6

>  <PUBCHEM_CACTVS_HBOND_DONOR>  (5) 
4

>  <PUBCHEM_CACTVS_ROTATABLE_BOND>  (5) 
12

>  <PUBCHEM_CACTVS_SUBSKEYS>  (5) 
AAADcfB/OQAAAAAAAAAAAAAAAAAAAWAAAAAwYMAAAAAAAAAB1AAAHwAQCAAADRzhng4yyJPMEgCoAyXyXACCgCAlAiAI2CE4ZNgIMP7A1ZGEYYhntADIyUec/ObOgAAAAAAAAAAAAAAAAAAAAAAAAAAAAA==

>  <PUBCHEM_IUPAC_OPENEYE_NAME>  (5) 
(3R,5R)-7-[2-(4-fluorophenyl)-5-isopropyl-3-phenyl-4-(phenylcarbamoyl)pyrrol-1-yl]-3,5-dihydroxy-heptanoic acid

>  <PUBCHEM_IUPAC_CAS_NAME>  (5) 
(3R,5R)-7-[4-[anilino(oxo)methyl]-2-(4-fluorophenyl)-3-phenyl-5-propan-2-yl-1-pyrrolyl]-3,5-dihydroxyheptanoic acid

>  <PUBCHEM_IUPAC_NAME_MARKUP>  (5) 
(3<I>R</I>,5<I>R</I>)-7-[2-(4-fluorophenyl)-3-phenyl-4-(phenylcarbamoyl)-5-propan-2-ylpyrrol-1-yl]-3,5-dihydroxyheptanoic acid

>  <PUBCHEM_IUPAC_NAME>  (5) 
(3R,5R)-7-[2-(4-fluorophenyl)-3-phenyl-4-(phenylcarbamoyl)-5-propan-2-ylpyrrol-1-yl]-3,5-dihydroxyheptanoic acid

>  <PUBCHEM_IUPAC_SYSTEMATIC_NAME>  (5) 
(3R,5R)-7-[2-(4-fluorophenyl)-3-phenyl-4-(phenylcarbamoyl)-5-propan-2-yl-pyrrol-1-yl]-3,5-bis(oxidanyl)heptanoic acid

>  <PUBCHEM_IUPAC_TRADITIONAL_NAME>  (5) 
(3R,5R)-7-[2-(4-fluorophenyl)-5-isopropyl-3-phenyl-4-(phenylcarbamoyl)pyrrol-1-yl]-3,5-dihydroxy-enanthic acid

>  <PUBCHEM_IUPAC_INCHI>  (5) 
InChI=1S/C33H35FN2O5/c1-21(2)31-30(33(41)35-25-11-7-4-8-12-25)29(22-9-5-3-6-10-22)32(23-13-15-24(34)16-14-23)36(31)18-17-26(37)19-27(38)20-28(39)40/h3-16,21,26-27,37-38H,17-20H2,1-2H3,(H,35,41)(H,39,40)/t26-,27-/m1/s1

>  <PUBCHEM_IUPAC_INCHIKEY>  (5) 
XUKUURHRXDUEBC-KAYWLYCHSA-N

>  <PUBCHEM_XLOGP3_AA>  (5) 
5

>  <PUBCHEM_EXACT_MASS>  (5) 
558.25300038

>  <PUBCHEM_MOLECULAR_FORMULA>  (5) 
C33H35FN2O5

>  <PUBCHEM_MOLECULAR_WEIGHT>  (5) 
558.6

>  <PUBCHEM_OPENEYE_CAN_SMILES>  (5) 
CC(C)C1=C(C(=C(N1CCC(CC(CC(=O)O)O)O)C2=CC=C(C=C2)F)C3=CC=CC=C3)C(=O)NC4=CC=CC=C4

>  <PUBCHEM_OPENEYE_ISO_SMILES>  (5) 
CC(C)C1=C(C(=C(N1CC[C@H](C[C@H](CC(=O)O)O)O)C2=CC=C(C=C2)F)C3=CC=CC=C3)C(=O)NC4=CC=CC=C4

>  <PUBCHEM_CACTVS_TPSA>  (5) 
112

>  <PUBCHEM_MONOISOTOPIC_WEIGHT>  (5) 
558.25300038

>  <PUBCHEM_TOTAL_CHARGE>  (5) 
0

>  <PUBCHEM_HEAVY_ATOM_COUNT>  (5) 
41

>  <PUBCHEM_ATOM_DEF_STEREO_COUNT>  (5) 
2

>  <PUBCHEM_ATOM_UDEF_STEREO_COUNT>  (5) 
0

>  <PUBCHEM_BOND_DEF_STEREO_COUNT>  (5) 
0

>  <PUBCHEM_BOND_UDEF_STEREO_COUNT>  (5) 
0

>  <PUBCHEM_ISOTOPIC_ATOM_COUNT>  (5) 
0

>  <PUBCHEM_COMPONENT_COUNT>  (5) 
1

>  <PUBCHEM_CACTVS_TAUTO_COUNT>  (5) 
2

>  <PUBCHEM_COORDINATE_TYPE>  (5) 
1
5
255

>  <PUBCHEM_BONDANNOTATIONS>  (5) 
11  15  8
14  15  8
18  25  8
18  26  8
16  2  5
21  27  8
21  28  8
25  29  8
26  30  8
27  31  8
28  32  8
29  33  8
22  3  5
30  33  8
31  36  8
32  36  8
34  37  8
34  38  8
37  39  8
38  40  8
39  41  8
40  41  8
7  11  8
7  9  8
9  14  8

$$$$
90311989
     RDKit          2D

 32 36  0  0  1  0  0  0  0  0999 V2000
    5.4547   -0.1495    0.0000 F   0  0  0  0  0  0  0  0  0  0  0  0
    3.5066   -3.0139    0.0000 F   0  0  0  0  0  0  0  0  0  0  0  0
    2.0000    0.1054    0.0000 F   0  0  0  0  0  0  0  0  0  0  0  0
   10.3012    2.1475    0.0000 O   0  0  0  0  0  0  0  0  0  0  0  0
   11.6334   -0.9626    0.0000 O   0  0  0  0  0  0  0  0  0  0  0  0
   10.6418   -2.5098    0.0000 O   0  0  0  0  0  0  0  0  0  0  0  0
    8.7689   -3.4412    0.0000 O   0  0  0  0  0  0  0  0  0  0  0  0
    6.9613   -3.2689    0.0000 O   0  0  0  0  0  0  0  0  0  0  0  0
   10.8546    0.6270    0.0000 N   0  0  0  0  0  0  0  0  0  0  0  0
    9.0018   -0.2944    0.0000 N   0  0  0  0  0  0  0  0  0  0  0  0
    6.2080   -1.7092    0.0000 N   0  0  0  0  0  0  0  0  0  0  0  0
   12.0756    1.4927    0.0000 C   0  0  0  0  0  0  0  0  0  0  0  0
   12.3345    2.4586    0.0000 C   0  0  0  0  0  0  0  0  0  0  0  0
   11.5978    3.4412    0.0000 C   0  0  0  0  0  0  0  0  0  0  0  0
   13.4746    0.9839    0.0000 C   0  0  0  0  0  0  0  0  0  0  0  0
   13.7334    1.9498    0.0000 C   0  0  0  0  0  0  0  0  0  0  0  0
   10.0256    1.1862    0.0000 C   0  0  0  0  0  0  0  0  0  0  0  0
    9.0824    0.7441    0.0000 C   0  0  0  0  0  0  0  0  0  0  0  0
   10.7980   -0.4131    0.0000 C   0  0  0  0  0  0  0  0  0  0  0  0
    9.8653   -0.8769    0.0000 C   0  0  0  0  0  0  0  0  0  0  0  0
    8.0194   -0.7550    0.0000 C   0  0  0  0  0  0  0  0  0  0  0  0
    9.8063   -1.9603    0.0000 C   0  0  0  0  0  0  0  0  0  0  0  0
    7.9353   -1.8367    0.0000 C   0  0  0  0  0  0  0  0  0  0  0  0
    8.8348   -2.4434    0.0000 C   0  0  0  0  0  0  0  0  0  0  0  0
    7.0349   -2.2716    0.0000 C   0  0  0  0  0  0  0  0  0  0  0  0
    5.3075   -2.1441    0.0000 C   0  0  0  0  0  0  0  0  0  0  0  0
    4.4806   -1.5817    0.0000 C   0  0  0  0  0  0  0  0  0  0  0  0
    4.5542   -0.5844    0.0000 C   0  0  0  0  0  0  0  0  0  0  0  0
    3.5802   -2.0166    0.0000 C   0  0  0  0  0  0  0  0  0  0  0  0
    3.7274   -0.0221    0.0000 C   0  0  0  0  0  0  0  0  0  0  0  0
    2.7533   -1.4542    0.0000 C   0  0  0  0  0  0  0  0  0  0  0  0
    2.8269   -0.4570    0.0000 C   0  0  0  0  0  0  0  0  0  0  0  0
  1 28  1  0
  2 29  1  0
  3 32  1  0
  4 13  1  0
  4 17  1  0
  5 19  2  0
  6 22  1  0
  7 24  2  0
  8 25  2  0
  9 12  1  0
  9 17  1  0
  9 19  1  0
 10 18  1  0
 10 20  1  0
 10 21  1  0
 11 25  1  0
 11 26  1  0
 12 14  1  0
 12 15  1  6
 13 14  1  0
 13 16  1  1
 15 16  1  0
 17 18  1  1
 19 20  1  0
 20 22  2  0
 21 23  2  0
 22 24  1  0
 23 24  1  0
 23 25  1  0
 26 27  1  0
 27 28  2  0
 27 29  1  0
 28 30  1  0
 29 31  2  0
 30 32  2  0
 31 32  1  0
M  END
>  <PUBCHEM_COMPOUND_CID>  (6) 
90311989

>  <PUBCHEM_COMPOUND_CANONICALIZED>  (6) 
1

>  <PUBCHEM_CACTVS_COMPLEXITY>  (6) 
912

>  <PUBCHEM_CACTVS_HBOND_ACCEPTOR>  (6) 
9

>  <PUBCHEM_CACTVS_HBOND_DONOR>  (6) 
2

>  <PUBCHEM_CACTVS_ROTATABLE_BOND>  (6) 
3

>  <PUBCHEM_CACTVS_SUBSKEYS>  (6) 
AAADceB7OYAAAAAAAAAAAAAAAAAAAYAAAAA8WIEABYAAAACxAAAAHwAQCAAADDzhmA4wAIPABgCIAqVWUAKCAAAgIAAAiIHIBMgKYDqIkTGfYAhmxgCYiceygAAOAAAAAAAAAAAAAAAAAAAAAAEAAAAAAA==

>  <PUBCHEM_IUPAC_OPENEYE_NAME>  (6) 
(1S,11R,13R)-5-hydroxy-3,6-dioxo-N-[(2,4,6-trifluorophenyl)methyl]-12-oxa-2,9-diazatetracyclo[11.2.1.02,11.04,9]hexadeca-4,7-diene-7-carboxamide

>  <PUBCHEM_IUPAC_CAS_NAME>  (6) 
(1S,11R,13R)-5-hydroxy-3,6-dioxo-N-[(2,4,6-trifluorophenyl)methyl]-12-oxa-2,9-diazatetracyclo[11.2.1.02,11.04,9]hexadeca-4,7-diene-7-carboxamide

>  <PUBCHEM_IUPAC_NAME_MARKUP>  (6) 
(1<I>S</I>,11<I>R</I>,13<I>R</I>)-5-hydroxy-3,6-dioxo-<I>N</I>-[(2,4,6-trifluorophenyl)methyl]-12-oxa-2,9-diazatetracyclo[11.2.1.0<SUP>2,11</SUP>.0<SUP>4,9</SUP>]hexadeca-4,7-diene-7-carboxamide

>  <PUBCHEM_IUPAC_NAME>  (6) 
(1S,11R,13R)-5-hydroxy-3,6-dioxo-N-[(2,4,6-trifluorophenyl)methyl]-12-oxa-2,9-diazatetracyclo[11.2.1.02,11.04,9]hexadeca-4,7-diene-7-carboxamide

>  <PUBCHEM_IUPAC_SYSTEMATIC_NAME>  (6) 
(1S,11R,13R)-5-oxidanyl-3,6-bis(oxidanylidene)-N-[[2,4,6-tris(fluoranyl)phenyl]methyl]-12-oxa-2,9-diazatetracyclo[11.2.1.02,11.04,9]hexadeca-4,7-diene-7-carboxamide

>  <PUBCHEM_IUPAC_TRADITIONAL_NAME>  (6) 
(1S,11R,13R)-5-hydroxy-3,6-diketo-N-(2,4,6-trifluorobenzyl)-12-oxa-2,9-diazatetracyclo[11.2.1.02,11.04,9]hexadeca-4,7-diene-7-carboxamide

>  <PUBCHEM_IUPAC_INCHI>  (6) 
InChI=1S/C21H18F3N3O5/c22-9-3-14(23)12(15(24)4-9)6-25-20(30)13-7-26-8-16-27(10-1-2-11(5-10)32-16)21(31)17(26)19(29)18(13)28/h3-4,7,10-11,16,29H,1-2,5-6,8H2,(H,25,30)/t10-,11+,16+/m0/s1

>  <PUBCHEM_IUPAC_INCHIKEY>  (6) 
SOLUWJRYJLAZCX-LYOVBCGYSA-N

>  <PUBCHEM_XLOGP3_AA>  (6) 
2.7

>  <PUBCHEM_EXACT_MASS>  (6) 
449.11985517

>  <PUBCHEM_MOLECULAR_FORMULA>  (6) 
C21H18F3N3O5

>  <PUBCHEM_MOLECULAR_WEIGHT>  (6) 
449.4

>  <PUBCHEM_OPENEYE_CAN_SMILES>  (6) 
C1CC2CC1N3C(O2)CN4C=C(C(=O)C(=C4C3=O)O)C(=O)NCC5=C(C=C(C=C5F)F)F

>  <PUBCHEM_OPENEYE_ISO_SMILES>  (6) 
C1C[C@@H]2C[C@H]1N3[C@H](O2)CN4C=C(C(=O)C(=C4C3=O)O)C(=O)NCC5=C(C=C(C=C5F)F)F

>  <PUBCHEM_CACTVS_TPSA>  (6) 
99.2

>  <PUBCHEM_MONOISOTOPIC_WEIGHT>  (6) 
449.11985517

>  <PUBCHEM_TOTAL_CHARGE>  (6) 
0

>  <PUBCHEM_HEAVY_ATOM_COUNT>  (6) 
32

>  <PUBCHEM_ATOM_DEF_STEREO_COUNT>  (6) 
3

>  <PUBCHEM_ATOM_UDEF_STEREO_COUNT>  (6) 
0

>  <PUBCHEM_BOND_DEF_STEREO_COUNT>  (6) 
0

>  <PUBCHEM_BOND_UDEF_STEREO_COUNT>  (6) 
0

>  <PUBCHEM_ISOTOPIC_ATOM_COUNT>  (6) 
0

>  <PUBCHEM_COMPONENT_COUNT>  (6) 
1

>  <PUBCHEM_CACTVS_TAUTO_COUNT>  (6) 
6

>  <PUBCHEM_COORDINATE_TYPE>  (6) 
1
5
255

>  <PUBCHEM_BONDANNOTATIONS>  (6) 
10  20  8
10  21  8
12  33  5
13  34  6
17  41  6
20  22  8
21  23  8
22  24  8
23  24  8
27  28  8
27  29  8
28  30  8
29  31  8
30  32  8
31  32  8

$$$$
2381
     RDKit          2D

 23 26  0  0  1  0  0  0  0  0999 V2000
    6.6187   -0.7866    0.0000 O   0  0  0  0  0  0  0  0  0  0  0  0
    3.8126    1.4775    0.0000 N   0  0  0  0  0  0  0  0  0  0  0  0
    6.1350    0.5423    0.0000 C   0  0  0  0  0  0  0  0  0  0  0  0
    7.5077    1.1344    0.0000 C   0  0  0  0  0  0  0  0  0  0  0  0
    7.7665    2.1003    0.0000 C   0  0  0  0  0  0  0  0  0  0  0  0
    5.7930    1.4820    0.0000 C   0  0  0  0  0  0  0  0  0  0  0  0
    7.0299    3.0829    0.0000 C   0  0  0  0  0  0  0  0  0  0  0  0
    5.7124   -0.3640    0.0000 C   0  0  0  0  0  0  0  0  0  0  0  0
    8.9067    0.6255    0.0000 C   0  0  0  0  0  0  0  0  0  0  0  0
    9.1655    1.5915    0.0000 C   0  0  0  0  0  0  0  0  0  0  0  0
    4.8061    0.0586    0.0000 C   0  0  0  0  0  0  0  0  0  0  0  0
    5.2898   -1.2703    0.0000 C   0  0  0  0  0  0  0  0  0  0  0  0
    4.7189    1.0548    0.0000 C   0  0  0  0  0  0  0  0  0  0  0  0
    5.8633   -2.0894    0.0000 C   0  0  0  0  0  0  0  0  0  0  0  0
    4.2936   -1.3574    0.0000 C   0  0  0  0  0  0  0  0  0  0  0  0
    2.9935    0.9039    0.0000 C   0  0  0  0  0  0  0  0  0  0  0  0
    3.7255    2.4736    0.0000 C   0  0  0  0  0  0  0  0  0  0  0  0
    2.0872    1.3265    0.0000 C   0  0  0  0  0  0  0  0  0  0  0  0
    2.8192    2.8963    0.0000 C   0  0  0  0  0  0  0  0  0  0  0  0
    2.0000    2.3227    0.0000 C   0  0  0  0  0  0  0  0  0  0  0  0
    5.4407   -2.9957    0.0000 C   0  0  0  0  0  0  0  0  0  0  0  0
    3.8710   -2.2637    0.0000 C   0  0  0  0  0  0  0  0  0  0  0  0
    4.4445   -3.0829    0.0000 C   0  0  0  0  0  0  0  0  0  0  0  0
  1  8  1  0
  2 13  1  0
  2 16  1  0
  2 17  1  0
  3  4  1  0
  3  6  1  0
  3  8  1  0
  4  7  1  0
  4  9  1  0
  5  6  1  0
  5  7  1  0
  5 10  1  0
  8 11  1  0
  8 12  1  0
  9 10  2  0
 11 13  1  0
 12 14  2  0
 12 15  1  0
 14 21  1  0
 15 22  2  0
 16 18  1  0
 17 19  1  0
 18 20  1  0
 19 20  1  0
 21 23  2  0
 22 23  1  0
M  END
>  <PUBCHEM_COMPOUND_CID>  (7) 
2381

>  <PUBCHEM_COMPOUND_CANONICALIZED>  (7) 
1

>  <PUBCHEM_CACTVS_COMPLEXITY>  (7) 
422

>  <PUBCHEM_CACTVS_HBOND_ACCEPTOR>  (7) 
2

>  <PUBCHEM_CACTVS_HBOND_DONOR>  (7) 
1

>  <PUBCHEM_CACTVS_ROTATABLE_BOND>  (7) 
5

>  <PUBCHEM_CACTVS_SUBSKEYS>  (7) 
AAADceB6IAAAAAAAAAAAAAAAAAAAAYIAAAA8QIAAAAAAAAABAAAAHgAACAAADUTBmAQwAIMAAgCAAiBCAAACAAAgAAAIiAAICIgIJiKAkRCEcAAmwAGImAeQwPAOgAAAAAAAAAAAAAAAAAAAAQAACAAAAA==

>  <PUBCHEM_IUPAC_OPENEYE_NAME>  (7) 
1-(2-bicyclo[2.2.1]hept-5-enyl)-1-phenyl-3-(1-piperidyl)propan-1-ol

>  <PUBCHEM_IUPAC_CAS_NAME>  (7) 
1-(2-bicyclo[2.2.1]hept-5-enyl)-1-phenyl-3-(1-piperidinyl)-1-propanol

>  <PUBCHEM_IUPAC_NAME_MARKUP>  (7) 
1-(2-bicyclo[2.2.1]hept-5-enyl)-1-phenyl-3-piperidin-1-ylpropan-1-ol

>  <PUBCHEM_IUPAC_NAME>  (7) 
1-(2-bicyclo[2.2.1]hept-5-enyl)-1-phenyl-3-piperidin-1-ylpropan-1-ol

>  <PUBCHEM_IUPAC_SYSTEMATIC_NAME>  (7) 
1-(2-bicyclo[2.2.1]hept-5-enyl)-1-phenyl-3-piperidin-1-yl-propan-1-ol

>  <PUBCHEM_IUPAC_TRADITIONAL_NAME>  (7) 
1-(2-bicyclo[2.2.1]hept-5-enyl)-1-phenyl-3-piperidino-propan-1-ol

>  <PUBCHEM_IUPAC_INCHI>  (7) 
InChI=1S/C21H29NO/c23-21(19-7-3-1-4-8-19,11-14-22-12-5-2-6-13-22)20-16-17-9-10-18(20)15-17/h1,3-4,7-10,17-18,20,23H,2,5-6,11-16H2

>  <PUBCHEM_IUPAC_INCHIKEY>  (7) 
YSXKPIUOCJLQIE-UHFFFAOYSA-N

>  <PUBCHEM_XLOGP3>  (7) 
4.3

>  <PUBCHEM_EXACT_MASS>  (7) 
311.224914549

>  <PUBCHEM_MOLECULAR_FORMULA>  (7) 
C21H29NO

>  <PUBCHEM_MOLECULAR_WEIGHT>  (7) 
311.5

>  <PUBCHEM_OPENEYE_CAN_SMILES>  (7) 
C1CCN(CC1)CCC(C2CC3CC2C=C3)(C4=CC=CC=C4)O

>  <PUBCHEM_OPENEYE_ISO_SMILES>  (7) 
C1CCN(CC1)CCC(C2CC3CC2C=C3)(C4=CC=CC=C4)O

>  <PUBCHEM_CACTVS_TPSA>  (7) 
23.5

>  <PUBCHEM_MONOISOTOPIC_WEIGHT>  (7) 
311.224914549

>  <PUBCHEM_TOTAL_CHARGE>  (7) 
0

>  <PUBCHEM_HEAVY_ATOM_COUNT>  (7) 
23

>  <PUBCHEM_ATOM_DEF_STEREO_COUNT>  (7) 
0

>  <PUBCHEM_ATOM_UDEF_STEREO_COUNT>  (7) 
4

>  <PUBCHEM_BOND_DEF_STEREO_COUNT>  (7) 
0

>  <PUBCHEM_BOND_UDEF_STEREO_COUNT>  (7) 
0

>  <PUBCHEM_ISOTOPIC_ATOM_COUNT>  (7) 
0

>  <PUBCHEM_COMPONENT_COUNT>  (7) 
1

>  <PUBCHEM_CACTVS_TAUTO_COUNT>  (7) 
1

>  <PUBCHEM_COORDINATE_TYPE>  (7) 
1
5
255

>  <PUBCHEM_BONDANNOTATIONS>  (7) 
8  1  3
12  14  8
12  15  8
14  21  8
15  22  8
21  23  8
22  23  8
3  24  3
4  25  3
5  26  3

$$$$
2519
     RDKit          2D

 14 15  0  0  0  0  0  0  0  0999 V2000
    3.7320    2.0000    0.0000 O   0  0  0  0  0  0  0  0  0  0  0  0
    2.0000   -1.0000    0.0000 O   0  0  0  0  0  0  0  0  0  0  0  0
    3.7320   -1.0000    0.0000 N   0  0  0  0  0  0  0  0  0  0  0  0
    5.5443    0.8047    0.0000 N   0  0  0  0  0  0  0  0  0  0  0  0
    2.8660    0.5000    0.0000 N   0  0  0  0  0  0  0  0  0  0  0  0
    5.5443   -0.8047    0.0000 N   0  0  0  0  0  0  0  0  0  0  0  0
    4.5981    0.5000    0.0000 C   0  0  0  0  0  0  0  0  0  0  0  0
    4.5981   -0.5000    0.0000 C   0  0  0  0  0  0  0  0  0  0  0  0
    3.7320    1.0000    0.0000 C   0  0  0  0  0  0  0  0  0  0  0  0
    2.8660   -0.5000    0.0000 C   0  0  0  0  0  0  0  0  0  0  0  0
    6.1279    0.0000    0.0000 C   0  0  0  0  0  0  0  0  0  0  0  0
    3.7320   -2.0000    0.0000 C   0  0  0  0  0  0  0  0  0  0  0  0
    5.8550    1.7552    0.0000 C   0  0  0  0  0  0  0  0  0  0  0  0
    2.0000    1.0000    0.0000 C   0  0  0  0  0  0  0  0  0  0  0  0
  1  9  2  0
  2 10  2  0
  3  8  1  0
  3 10  1  0
  3 12  1  0
  4  7  1  0
  4 11  1  0
  4 13  1  0
  5  9  1  0
  5 10  1  0
  5 14  1  0
  6  8  1  0
  6 11  2  0
  7  8  2  0
  7  9  1  0
M  END
>  <PUBCHEM_COMPOUND_CID>  (8) 
2519

>  <PUBCHEM_COMPOUND_CANONICALIZED>  (8) 
1

>  <PUBCHEM_CACTVS_COMPLEXITY>  (8) 
293

>  <PUBCHEM_CACTVS_HBOND_ACCEPTOR>  (8) 
3

>  <PUBCHEM_CACTVS_HBOND_DONOR>  (8) 
0

>  <PUBCHEM_CACTVS_ROTATABLE_BOND>  (8) 
0

>  <PUBCHEM_CACTVS_SUBSKEYS>  (8) 
AAADccBzsAAAAAAAAAAAAAAAAAAAAWAAAAAsAAAAAAAAAFgBgAAAHgAAAAAACAgBlgQHsBcMEACoAQdxdACAgC0XEKABUAGoVECASAhASCAUAIgIByJAAGAAAAAAAAAAAAAAAAAAAAAAAAAAAAAAAAAAAA==

>  <PUBCHEM_IUPAC_OPENEYE_NAME>  (8) 
1,3,7-trimethylpurine-2,6-dione

>  <PUBCHEM_IUPAC_CAS_NAME>  (8) 
1,3,7-trimethylpurine-2,6-dione

>  <PUBCHEM_IUPAC_NAME_MARKUP>  (8) 
1,3,7-trimethylpurine-2,6-dione

>  <PUBCHEM_IUPAC_NAME>  (8) 
1,3,7-trimethylpurine-2,6-dione

>  <PUBCHEM_IUPAC_SYSTEMATIC_NAME>  (8) 
1,3,7-trimethylpurine-2,6-dione

>  <PUBCHEM_IUPAC_TRADITIONAL_NAME>  (8) 
caffeine

>  <PUBCHEM_IUPAC_INCHI>  (8) 
InChI=1S/C8H10N4O2/c1-10-4-9-6-5(10)7(13)12(3)8(14)11(6)2/h4H,1-3H3

>  <PUBCHEM_IUPAC_INCHIKEY>  (8) 
RYYVLZVUVIJVGH-UHFFFAOYSA-N

>  <PUBCHEM_XLOGP3>  (8) 
-0.1

>  <PUBCHEM_EXACT_MASS>  (8) 
194.08037557

>  <PUBCHEM_MOLECULAR_FORMULA>  (8) 
C8H10N4O2

>  <PUBCHEM_MOLECULAR_WEIGHT>  (8) 
194.19

>  <PUBCHEM_OPENEYE_CAN_SMILES>  (8) 
CN1C=NC2=C1C(=O)N(C(=O)N2C)C

>  <PUBCHEM_OPENEYE_ISO_SMILES>  (8) 
CN1C=NC2=C1C(=O)N(C(=O)N2C)C

>  <PUBCHEM_CACTVS_TPSA>  (8) 
58.4

>  <PUBCHEM_MONOISOTOPIC_WEIGHT>  (8) 
194.08037557

>  <PUBCHEM_TOTAL_CHARGE>  (8) 
0

>  <PUBCHEM_HEAVY_ATOM_COUNT>  (8) 
14

>  <PUBCHEM_ATOM_DEF_STEREO_COUNT>  (8) 
0

>  <PUBCHEM_ATOM_UDEF_STEREO_COUNT>  (8) 
0

>  <PUBCHEM_BOND_DEF_STEREO_COUNT>  (8) 
0

>  <PUBCHEM_BOND_UDEF_STEREO_COUNT>  (8) 
0

>  <PUBCHEM_ISOTOPIC_ATOM_COUNT>  (8) 
0

>  <PUBCHEM_COMPONENT_COUNT>  (8) 
1

>  <PUBCHEM_CACTVS_TAUTO_COUNT>  (8) 
-1

>  <PUBCHEM_COORDINATE_TYPE>  (8) 
1
5
255

>  <PUBCHEM_BONDANNOTATIONS>  (8) 
3  10  8
3  8  8
4  11  8
4  7  8
5  10  8
5  9  8
6  11  8
6  8  8
7  8  8
7  9  8

$$$$
2678
     RDKit          2D

 27 29  0  0  1  0  0  0  0  0999 V2000
    2.0000   -5.0600    0.0000 Cl  0  0  0  0  0  0  0  0  0  0  0  0
    6.3301    2.4400    0.0000 O   0  0  0  0  0  0  0  0  0  0  0  0
    8.0622    4.4400    0.0000 O   0  0  0  0  0  0  0  0  0  0  0  0
    6.3301    4.4400    0.0000 O   0  0  0  0  0  0  0  0  0  0  0  0
    5.4641   -2.0600    0.0000 N   0  0  0  0  0  0  0  0  0  0  0  0
    5.4641   -0.0600    0.0000 N   0  0  0  0  0  0  0  0  0  0  0  0
    4.5981   -1.5600    0.0000 C   0  0  0  0  0  0  0  0  0  0  0  0
    6.3301   -1.5600    0.0000 C   0  0  0  0  0  0  0  0  0  0  0  0
    4.5981   -0.5600    0.0000 C   0  0  0  0  0  0  0  0  0  0  0  0
    6.3301   -0.5600    0.0000 C   0  0  0  0  0  0  0  0  0  0  0  0
    5.4641   -3.0600    0.0000 C   0  0  0  0  0  0  0  0  0  0  0  0
    5.4641    0.9400    0.0000 C   0  0  0  0  0  0  0  0  0  0  0  0
    4.5981   -3.5600    0.0000 C   0  0  0  0  0  0  0  0  0  0  0  0
    6.3301   -3.5600    0.0000 C   0  0  0  0  0  0  0  0  0  0  0  0
    6.3301    1.4400    0.0000 C   0  0  0  0  0  0  0  0  0  0  0  0
    4.5981   -4.5600    0.0000 C   0  0  0  0  0  0  0  0  0  0  0  0
    3.7320   -3.0600    0.0000 C   0  0  0  0  0  0  0  0  0  0  0  0
    6.3301   -4.5600    0.0000 C   0  0  0  0  0  0  0  0  0  0  0  0
    7.1962   -3.0600    0.0000 C   0  0  0  0  0  0  0  0  0  0  0  0
    3.7320   -5.0600    0.0000 C   0  0  0  0  0  0  0  0  0  0  0  0
    2.8660   -3.5600    0.0000 C   0  0  0  0  0  0  0  0  0  0  0  0
    7.1962   -5.0600    0.0000 C   0  0  0  0  0  0  0  0  0  0  0  0
    8.0622   -3.5600    0.0000 C   0  0  0  0  0  0  0  0  0  0  0  0
    2.8660   -4.5600    0.0000 C   0  0  0  0  0  0  0  0  0  0  0  0
    8.0622   -4.5600    0.0000 C   0  0  0  0  0  0  0  0  0  0  0  0
    7.1962    2.9400    0.0000 C   0  0  0  0  0  0  0  0  0  0  0  0
    7.1962    3.9400    0.0000 C   0  0  0  0  0  0  0  0  0  0  0  0
  1 24  1  0
  2 15  1  0
  2 26  1  0
  3 27  1  0
  4 27  2  0
  5  7  1  0
  5  8  1  0
  5 11  1  0
  6  9  1  0
  6 10  1  0
  6 12  1  0
  7  9  1  0
  8 10  1  0
 11 13  1  0
 11 14  1  0
 12 15  1  0
 13 16  2  0
 13 17  1  0
 14 18  2  0
 14 19  1  0
 16 20  1  0
 17 21  2  0
 18 22  1  0
 19 23  2  0
 20 24  2  0
 21 24  1  0
 22 25  2  0
 23 25  1  0
 26 27  1  0
M  END
>  <PUBCHEM_COMPOUND_CID>  (9) 
2678

>  <PUBCHEM_COMPOUND_CANONICALIZED>  (9) 
1

>  <PUBCHEM_CACTVS_COMPLEXITY>  (9) 
443

>  <PUBCHEM_CACTVS_HBOND_ACCEPTOR>  (9) 
5

>  <PUBCHEM_CACTVS_HBOND_DONOR>  (9) 
1

>  <PUBCHEM_CACTVS_ROTATABLE_BOND>  (9) 
8

>  <PUBCHEM_CACTVS_SUBSKEYS>  (9) 
AAADceB7MAAEAAAAAAAAAAAAAAAAAAAAAAA8YIAAAAAAAAABQAAAHgIACAAADCrhmCYwCIMABgCIAiDSCAKCAAAgBQAIiABIBogLYCKBkxWXIAhggACbiAcQgMAOBAAAAAAAAAAIAAAAAAAAAAAAAAAAAA==

>  <PUBCHEM_IUPAC_OPENEYE_NAME>  (9) 
2-[2-[4-[(4-chlorophenyl)-phenyl-methyl]piperazin-1-yl]ethoxy]acetic acid

>  <PUBCHEM_IUPAC_CAS_NAME>  (9) 
2-[2-[4-[(4-chlorophenyl)-phenylmethyl]-1-piperazinyl]ethoxy]acetic acid

>  <PUBCHEM_IUPAC_NAME_MARKUP>  (9) 
2-[2-[4-[(4-chlorophenyl)-phenylmethyl]piperazin-1-yl]ethoxy]acetic acid

>  <PUBCHEM_IUPAC_NAME>  (9) 
2-[2-[4-[(4-chlorophenyl)-phenylmethyl]piperazin-1-yl]ethoxy]acetic acid

>  <PUBCHEM_IUPAC_SYSTEMATIC_NAME>  (9) 
2-[2-[4-[(4-chlorophenyl)-phenyl-methyl]piperazin-1-yl]ethoxy]ethanoic acid

>  <PUBCHEM_IUPAC_TRADITIONAL_NAME>  (9) 
2-[2-[4-[(4-chlorophenyl)-phenyl-methyl]piperazino]ethoxy]acetic acid

>  <PUBCHEM_IUPAC_INCHI>  (9) 
InChI=1S/C21H25ClN2O3/c22-19-8-6-18(7-9-19)21(17-4-2-1-3-5-17)24-12-10-23(11-13-24)14-15-27-16-20(25)26/h1-9,21H,10-16H2,(H,25,26)

>  <PUBCHEM_IUPAC_INCHIKEY>  (9) 
ZKLPARSLTMPFCP-UHFFFAOYSA-N

>  <PUBCHEM_XLOGP3>  (9) 
1.7

>  <PUBCHEM_EXACT_MASS>  (9) 
388.1553704

>  <PUBCHEM_MOLECULAR_FORMULA>  (9) 
C21H25ClN2O3

>  <PUBCHEM_MOLECULAR_WEIGHT>  (9) 
388.9

>  <PUBCHEM_OPENEYE_CAN_SMILES>  (9) 
C1CN(CCN1CCOCC(=O)O)C(C2=CC=CC=C2)C3=CC=C(C=C3)Cl

>  <PUBCHEM_OPENEYE_ISO_SMILES>  (9) 
C1CN(CCN1CCOCC(=O)O)C(C2=CC=CC=C2)C3=CC=C(C=C3)Cl

>  <PUBCHEM_CACTVS_TPSA>  (9) 
53

>  <PUBCHEM_MONOISOTOPIC_WEIGHT>  (9) 
388.1553704

>  <PUBCHEM_TOTAL_CHARGE>  (9) 
0

>  <PUBCHEM_HEAVY_ATOM_COUNT>  (9) 
27

>  <PUBCHEM_ATOM_DEF_STEREO_COUNT>  (9) 
0

>  <PUBCHEM_ATOM_UDEF_STEREO_COUNT>  (9) 
1

>  <PUBCHEM_BOND_DEF_STEREO_COUNT>  (9) 
0

>  <PUBCHEM_BOND_UDEF_STEREO_COUNT>  (9) 
0

>  <PUBCHEM_ISOTOPIC_ATOM_COUNT>  (9) 
0

>  <PUBCHEM_COMPONENT_COUNT>  (9) 
1

>  <PUBCHEM_CACTVS_TAUTO_COUNT>  (9) 
1

>  <PUBCHEM_COORDINATE_TYPE>  (9) 
1
5
255

>  <PUBCHEM_BONDANNOTATIONS>  (9) 
11  14  3
13  16  8
13  17  8
14  18  8
14  19  8
16  20  8
17  21  8
18  22  8
19  23  8
20  24  8
21  24  8
22  25  8
23  25  8

$$$$
2719
     RDKit          2D

 22 23  0  0  1  0  0  0  0  0999 V2000
    2.0000   -4.0068    0.0000 Cl  0  0  0  0  0  0  0  0  0  0  0  0
    8.1282    2.5173    0.0000 N   0  0  0  0  0  0  0  0  0  0  0  0
    5.5301   -0.9827    0.0000 N   0  0  0  0  0  0  0  0  0  0  0  0
    5.5301   -3.9827    0.0000 N   0  0  0  0  0  0  0  0  0  0  0  0
    6.3961    0.5173    0.0000 C   0  0  0  0  0  0  0  0  0  0  0  0
    7.2622    1.0173    0.0000 C   0  0  0  0  0  0  0  0  0  0  0  0
    6.3961   -0.4827    0.0000 C   0  0  0  0  0  0  0  0  0  0  0  0
    7.2622    2.0173    0.0000 C   0  0  0  0  0  0  0  0  0  0  0  0
    7.2622   -0.9827    0.0000 C   0  0  0  0  0  0  0  0  0  0  0  0
    8.1282    3.5173    0.0000 C   0  0  0  0  0  0  0  0  0  0  0  0
    8.9942    2.0173    0.0000 C   0  0  0  0  0  0  0  0  0  0  0  0
    5.5301   -1.9827    0.0000 C   0  0  0  0  0  0  0  0  0  0  0  0
    4.6641   -2.4827    0.0000 C   0  0  0  0  0  0  0  0  0  0  0  0
    8.9942    4.0173    0.0000 C   0  0  0  0  0  0  0  0  0  0  0  0
    9.8602    2.5173    0.0000 C   0  0  0  0  0  0  0  0  0  0  0  0
    6.3961   -2.4827    0.0000 C   0  0  0  0  0  0  0  0  0  0  0  0
    4.6641   -3.4827    0.0000 C   0  0  0  0  0  0  0  0  0  0  0  0
    3.7702   -1.9480    0.0000 C   0  0  0  0  0  0  0  0  0  0  0  0
    6.3961   -3.4827    0.0000 C   0  0  0  0  0  0  0  0  0  0  0  0
    3.7702   -4.0173    0.0000 C   0  0  0  0  0  0  0  0  0  0  0  0
    2.8641   -2.4618    0.0000 C   0  0  0  0  0  0  0  0  0  0  0  0
    2.8641   -3.5035    0.0000 C   0  0  0  0  0  0  0  0  0  0  0  0
  1 22  1  0
  2  8  1  0
  2 10  1  0
  2 11  1  0
  3  7  1  0
  3 12  1  0
  4 17  2  0
  4 19  1  0
  5  6  1  0
  5  7  1  0
  6  8  1  0
  7  9  1  0
 10 14  1  0
 11 15  1  0
 12 13  2  0
 12 16  1  0
 13 17  1  0
 13 18  1  0
 16 19  2  0
 17 20  1  0
 18 21  2  0
 20 22  2  0
 21 22  1  0
M  END
>  <PUBCHEM_COMPOUND_CID>  (10) 
2719

>  <PUBCHEM_COMPOUND_CANONICALIZED>  (10) 
1

>  <PUBCHEM_CACTVS_COMPLEXITY>  (10) 
309

>  <PUBCHEM_CACTVS_HBOND_ACCEPTOR>  (10) 
3

>  <PUBCHEM_CACTVS_HBOND_DONOR>  (10) 
1

>  <PUBCHEM_CACTVS_ROTATABLE_BOND>  (10) 
8

>  <PUBCHEM_CACTVS_SUBSKEYS>  (10) 
AAADceB7AAAEAAAAAAAAAAAAAAAAAAAAAAA8QAAAAAAAAACx8AAAHAIQAAAADCrBHiQ+wPPIEACgAzRnRACCgCAxByAI2KA4ZpgIIOLB09GEJAhgkADIyAcQgIAOBAAAAAICAAAIAAAABAQAAAAAAAAAAA==

>  <PUBCHEM_IUPAC_OPENEYE_NAME>  (10) 
N4-(7-chloro-4-quinolyl)-N1,N1-diethyl-pentane-1,4-diamine

>  <PUBCHEM_IUPAC_CAS_NAME>  (10) 
N4-(7-chloro-4-quinolinyl)-N1,N1-diethylpentane-1,4-diamine

>  <PUBCHEM_IUPAC_NAME_MARKUP>  (10) 
4-<I>N</I>-(7-chloroquinolin-4-yl)-1-<I>N</I>,1-<I>N</I>-diethylpentane-1,4-diamine

>  <PUBCHEM_IUPAC_NAME>  (10) 
4-N-(7-chloroquinolin-4-yl)-1-N,1-N-diethylpentane-1,4-diamine

>  <PUBCHEM_IUPAC_SYSTEMATIC_NAME>  (10) 
N4-(7-chloranylquinolin-4-yl)-N1,N1-diethyl-pentane-1,4-diamine

>  <PUBCHEM_IUPAC_TRADITIONAL_NAME>  (10) 
4-[(7-chloro-4-quinolyl)amino]pentyl-diethyl-amine

>  <PUBCHEM_IUPAC_INCHI>  (10) 
InChI=1S/C18H26ClN3/c1-4-22(5-2)12-6-7-14(3)21-17-10-11-20-18-13-15(19)8-9-16(17)18/h8-11,13-14H,4-7,12H2,1-3H3,(H,20,21)

>  <PUBCHEM_IUPAC_INCHIKEY>  (10) 
WHTVZRBIWZFKQO-UHFFFAOYSA-N

>  <PUBCHEM_XLOGP3>  (10) 
4.6

>  <PUBCHEM_EXACT_MASS>  (10) 
319.1815255

>  <PUBCHEM_MOLECULAR_FORMULA>  (10) 
C18H26ClN3

>  <PUBCHEM_MOLECULAR_WEIGHT>  (10) 
319.9

>  <PUBCHEM_OPENEYE_CAN_SMILES>  (10) 
CCN(CC)CCCC(C)NC1=C2C=CC(=CC2=NC=C1)Cl

>  <PUBCHEM_OPENEYE_ISO_SMILES>  (10) 
CCN(CC)CCCC(C)NC1=C2C=CC(=CC2=NC=C1)Cl

>  <PUBCHEM_CACTVS_TPSA>  (10) 
28.2

>  <PUBCHEM_MONOISOTOPIC_WEIGHT>  (10) 
319.1815255

>  <PUBCHEM_TOTAL_CHARGE>  (10) 
0

>  <PUBCHEM_HEAVY_ATOM_COUNT>  (10) 
22

>  <PUBCHEM_ATOM_DEF_STEREO_COUNT>  (10) 
0

>  <PUBCHEM_ATOM_UDEF_STEREO_COUNT>  (10) 
1

>  <PUBCHEM_BOND_DEF_STEREO_COUNT>  (10) 
0

>  <PUBCHEM_BOND_UDEF_STEREO_COUNT>  (10) 
0

>  <PUBCHEM_ISOTOPIC_ATOM_COUNT>  (10) 
0

>  <PUBCHEM_COMPONENT_COUNT>  (10) 
1

>  <PUBCHEM_CACTVS_TAUTO_COUNT>  (10) 
-1

>  <PUBCHEM_COORDINATE_TYPE>  (10) 
1
5
255

>  <PUBCHEM_BONDANNOTATIONS>  (10) 
12  13  8
12  16  8
13  17  8
13  18  8
16  19  8
17  20  8
18  21  8
20  22  8
21  22  8
4  17  8
4  19  8
7  9  3

$$$$
2726
     RDKit          2D

 21 23  0  0  0  0  0  0  0  0999 V2000
    8.1962   -0.9585    0.0000 Cl  0  0  0  0  0  0  0  0  0  0  0  0
    4.6660   -2.9827    0.0000 S   0  0  0  0  0  0  0  0  0  0  0  0
    4.6660   -0.9827    0.0000 N   0  0  0  0  0  0  0  0  0  0  0  0
    2.9340    2.0173    0.0000 N   0  0  0  0  0  0  0  0  0  0  0  0
    4.6660    0.0173    0.0000 C   0  0  0  0  0  0  0  0  0  0  0  0
    3.8000    0.5173    0.0000 C   0  0  0  0  0  0  0  0  0  0  0  0
    3.8000    1.5173    0.0000 C   0  0  0  0  0  0  0  0  0  0  0  0
    5.5321   -1.4827    0.0000 C   0  0  0  0  0  0  0  0  0  0  0  0
    3.8000   -1.4827    0.0000 C   0  0  0  0  0  0  0  0  0  0  0  0
    5.5321   -2.4827    0.0000 C   0  0  0  0  0  0  0  0  0  0  0  0
    3.8000   -2.4827    0.0000 C   0  0  0  0  0  0  0  0  0  0  0  0
    6.4260   -0.9480    0.0000 C   0  0  0  0  0  0  0  0  0  0  0  0
    2.9061   -0.9480    0.0000 C   0  0  0  0  0  0  0  0  0  0  0  0
    6.4260   -3.0173    0.0000 C   0  0  0  0  0  0  0  0  0  0  0  0
    2.9061   -3.0173    0.0000 C   0  0  0  0  0  0  0  0  0  0  0  0
    2.9340    3.0173    0.0000 C   0  0  0  0  0  0  0  0  0  0  0  0
    2.0680    1.5173    0.0000 C   0  0  0  0  0  0  0  0  0  0  0  0
    7.3321   -1.4619    0.0000 C   0  0  0  0  0  0  0  0  0  0  0  0
    2.0000   -1.4619    0.0000 C   0  0  0  0  0  0  0  0  0  0  0  0
    7.3321   -2.5035    0.0000 C   0  0  0  0  0  0  0  0  0  0  0  0
    2.0000   -2.5035    0.0000 C   0  0  0  0  0  0  0  0  0  0  0  0
  1 18  1  0
  2 10  1  0
  2 11  1  0
  3  5  1  0
  3  8  1  0
  3  9  1  0
  4  7  1  0
  4 16  1  0
  4 17  1  0
  5  6  1  0
  6  7  1  0
  8 10  2  0
  8 12  1  0
  9 11  2  0
  9 13  1  0
 10 14  1  0
 11 15  1  0
 12 18  2  0
 13 19  2  0
 14 20  2  0
 15 21  2  0
 18 20  1  0
 19 21  1  0
M  END
>  <PUBCHEM_COMPOUND_CID>  (11) 
2726

>  <PUBCHEM_COMPOUND_CANONICALIZED>  (11) 
1

>  <PUBCHEM_CACTVS_COMPLEXITY>  (11) 
339

>  <PUBCHEM_CACTVS_HBOND_ACCEPTOR>  (11) 
3

>  <PUBCHEM_CACTVS_HBOND_DONOR>  (11) 
0

>  <PUBCHEM_CACTVS_ROTATABLE_BOND>  (11) 
4

>  <PUBCHEM_CACTVS_SUBSKEYS>  (11) 
AAADceB7AABEAAAAAAAAAAAAAAAAAAAAAAA8YIAAAAAAAACxQAAAHAYAAAAACArBUCQywYMAAAiAACRCQACCAAAhDxAIiBwIZogIIGLh05GEIAhggADoyAcQAAAAAAIAAAIAAQAABAAABAACAAAAAAAAAA==

>  <PUBCHEM_IUPAC_OPENEYE_NAME>  (11) 
3-(2-chlorophenothiazin-10-yl)-N,N-dimethyl-propan-1-amine

>  <PUBCHEM_IUPAC_CAS_NAME>  (11) 
3-(2-chloro-10-phenothiazinyl)-N,N-dimethyl-1-propanamine

>  <PUBCHEM_IUPAC_NAME_MARKUP>  (11) 
3-(2-chlorophenothiazin-10-yl)-<I>N</I>,<I>N</I>-dimethylpropan-1-amine

>  <PUBCHEM_IUPAC_NAME>  (11) 
3-(2-chlorophenothiazin-10-yl)-N,N-dimethylpropan-1-amine

>  <PUBCHEM_IUPAC_SYSTEMATIC_NAME>  (11) 
3-(2-chloranylphenothiazin-10-yl)-N,N-dimethyl-propan-1-amine

>  <PUBCHEM_IUPAC_TRADITIONAL_NAME>  (11) 
3-(2-chlorophenothiazin-10-yl)propyl-dimethyl-amine

>  <PUBCHEM_IUPAC_INCHI>  (11) 
InChI=1S/C17H19ClN2S/c1-19(2)10-5-11-20-14-6-3-4-7-16(14)21-17-9-8-13(18)12-15(17)20/h3-4,6-9,12H,5,10-11H2,1-2H3

>  <PUBCHEM_IUPAC_INCHIKEY>  (11) 
ZPEIMTDSQAKGNT-UHFFFAOYSA-N

>  <PUBCHEM_XLOGP3>  (11) 
5.2

>  <PUBCHEM_EXACT_MASS>  (11) 
318.0957475

>  <PUBCHEM_MOLECULAR_FORMULA>  (11) 
C17H19ClN2S

>  <PUBCHEM_MOLECULAR_WEIGHT>  (11) 
318.9

>  <PUBCHEM_OPENEYE_CAN_SMILES>  (11) 
CN(C)CCCN1C2=CC=CC=C2SC3=C1C=C(C=C3)Cl

>  <PUBCHEM_OPENEYE_ISO_SMILES>  (11) 
CN(C)CCCN1C2=CC=CC=C2SC3=C1C=C(C=C3)Cl

>  <PUBCHEM_CACTVS_TPSA>  (11) 
31.8

>  <PUBCHEM_MONOISOTOPIC_WEIGHT>  (11) 
318.0957475

>  <PUBCHEM_TOTAL_CHARGE>  (11) 
0

>  <PUBCHEM_HEAVY_ATOM_COUNT>  (11) 
21

>  <PUBCHEM_ATOM_DEF_STEREO_COUNT>  (11) 
0

>  <PUBCHEM_ATOM_UDEF_STEREO_COUNT>  (11) 
0

>  <PUBCHEM_BOND_DEF_STEREO_COUNT>  (11) 
0

>  <PUBCHEM_BOND_UDEF_STEREO_COUNT>  (11) 
0

>  <PUBCHEM_ISOTOPIC_ATOM_COUNT>  (11) 
0

>  <PUBCHEM_COMPONENT_COUNT>  (11) 
1

>  <PUBCHEM_CACTVS_TAUTO_COUNT>  (11) 
1

>  <PUBCHEM_COORDINATE_TYPE>  (11) 
1
5
255

>  <PUBCHEM_BONDANNOTATIONS>  (11) 
10  14  8
11  15  8
12  18  8
13  19  8
14  20  8
15  21  8
18  20  8
19  21  8
8  10  8
8  12  8
9  11  8
9  13  8

$$$$
2771
     RDKit          2D

 24 26  0  0  1  0  0  0  0  0999 V2000
    9.6504    1.8609    0.0000 F   0  0  0  0  0  0  0  0  0  0  0  0
    6.9939   -1.2894    0.0000 O   0  0  0  0  0  0  0  0  0  0  0  0
    3.8400    1.8378    0.0000 N   0  0  0  0  0  0  0  0  0  0  0  0
    2.0000   -2.7894    0.0000 N   0  0  0  0  0  0  0  0  0  0  0  0
    6.4103   -0.4846    0.0000 C   0  0  0  0  0  0  0  0  0  0  0  0
    6.1030    0.4670    0.0000 C   0  0  0  0  0  0  0  0  0  0  0  0
    5.4641   -0.7894    0.0000 C   0  0  0  0  0  0  0  0  0  0  0  0
    5.4641   -1.7894    0.0000 C   0  0  0  0  0  0  0  0  0  0  0  0
    5.1252    0.6766    0.0000 C   0  0  0  0  0  0  0  0  0  0  0  0
    7.2204    0.1018    0.0000 C   0  0  0  0  0  0  0  0  0  0  0  0
    6.4103   -2.0941    0.0000 C   0  0  0  0  0  0  0  0  0  0  0  0
    4.8178    1.6282    0.0000 C   0  0  0  0  0  0  0  0  0  0  0  0
    4.5981   -0.2894    0.0000 C   0  0  0  0  0  0  0  0  0  0  0  0
    4.5981   -2.2894    0.0000 C   0  0  0  0  0  0  0  0  0  0  0  0
    7.1176    1.0965    0.0000 C   0  0  0  0  0  0  0  0  0  0  0  0
    8.1332   -0.3066    0.0000 C   0  0  0  0  0  0  0  0  0  0  0  0
    3.7320   -0.7894    0.0000 C   0  0  0  0  0  0  0  0  0  0  0  0
    3.7320   -1.7894    0.0000 C   0  0  0  0  0  0  0  0  0  0  0  0
    7.9276    1.6828    0.0000 C   0  0  0  0  0  0  0  0  0  0  0  0
    8.9432    0.2798    0.0000 C   0  0  0  0  0  0  0  0  0  0  0  0
    8.8404    1.2745    0.0000 C   0  0  0  0  0  0  0  0  0  0  0  0
    3.5326    2.7894    0.0000 C   0  0  0  0  0  0  0  0  0  0  0  0
    3.1696    1.0958    0.0000 C   0  0  0  0  0  0  0  0  0  0  0  0
    2.8660   -2.2894    0.0000 C   0  0  0  0  0  0  0  0  0  0  0  0
  1 21  1  0
  2  5  1  0
  2 11  1  0
  3 12  1  0
  3 22  1  0
  3 23  1  0
  4 24  3  0
  5  6  1  0
  5  7  1  0
  5 10  1  0
  6  9  1  0
  7  8  2  0
  7 13  1  0
  8 11  1  0
  8 14  1  0
  9 12  1  0
 10 15  2  0
 10 16  1  0
 13 17  2  0
 14 18  2  0
 15 19  1  0
 16 20  2  0
 17 18  1  0
 18 24  1  0
 19 21  2  0
 20 21  1  0
M  END
>  <PUBCHEM_COMPOUND_CID>  (12) 
2771

>  <PUBCHEM_COMPOUND_CANONICALIZED>  (12) 
1

>  <PUBCHEM_CACTVS_COMPLEXITY>  (12) 
466

>  <PUBCHEM_CACTVS_HBOND_ACCEPTOR>  (12) 
4

>  <PUBCHEM_CACTVS_HBOND_DONOR>  (12) 
0

>  <PUBCHEM_CACTVS_ROTATABLE_BOND>  (12) 
5

>  <PUBCHEM_CACTVS_SUBSKEYS>  (12) 
AAADceB7IQAAAAAAAAAAAAAAAAAAASAAAAAwYAAAAAAAAEgBQAAAHwAAAAAADEThmA4yAIMABACQBiBCAAAiAAAgAAAIiAAICIgIpiKAsRiGMAAkwAEIqA+wwPAOwAACAAAQAACAAAQAACAAAAAAAAAAAA==

>  <PUBCHEM_IUPAC_OPENEYE_NAME>  (12) 
1-[3-(dimethylamino)propyl]-1-(4-fluorophenyl)-3H-isobenzofuran-5-carbonitrile

>  <PUBCHEM_IUPAC_CAS_NAME>  (12) 
1-[3-(dimethylamino)propyl]-1-(4-fluorophenyl)-3H-isobenzofuran-5-carbonitrile

>  <PUBCHEM_IUPAC_NAME_MARKUP>  (12) 
1-[3-(dimethylamino)propyl]-1-(4-fluorophenyl)-3<I>H</I>-2-benzofuran-5-carbonitrile

>  <PUBCHEM_IUPAC_NAME>  (12) 
1-[3-(dimethylamino)propyl]-1-(4-fluorophenyl)-3H-2-benzofuran-5-carbonitrile

>  <PUBCHEM_IUPAC_SYSTEMATIC_NAME>  (12) 
1-[3-(dimethylamino)propyl]-1-(4-fluorophenyl)-3H-2-benzofuran-5-carbonitrile

>  <PUBCHEM_IUPAC_TRADITIONAL_NAME>  (12) 
1-[3-(dimethylamino)propyl]-1-(4-fluorophenyl)phthalan-5-carbonitrile

>  <PUBCHEM_IUPAC_INCHI>  (12) 
InChI=1S/C20H21FN2O/c1-23(2)11-3-10-20(17-5-7-18(21)8-6-17)19-9-4-15(13-22)12-16(19)14-24-20/h4-9,12H,3,10-11,14H2,1-2H3

>  <PUBCHEM_IUPAC_INCHIKEY>  (12) 
WSEQXVZVJXJVFP-UHFFFAOYSA-N

>  <PUBCHEM_XLOGP3_AA>  (12) 
3.2

>  <PUBCHEM_EXACT_MASS>  (12) 
324.16379146

>  <PUBCHEM_MOLECULAR_FORMULA>  (12) 
C20H21FN2O

>  <PUBCHEM_MOLECULAR_WEIGHT>  (12) 
324.4

>  <PUBCHEM_OPENEYE_CAN_SMILES>  (12) 
CN(C)CCCC1(C2=C(CO1)C=C(C=C2)C#N)C3=CC=C(C=C3)F

>  <PUBCHEM_OPENEYE_ISO_SMILES>  (12) 
CN(C)CCCC1(C2=C(CO1)C=C(C=C2)C#N)C3=CC=C(C=C3)F

>  <PUBCHEM_CACTVS_TPSA>  (12) 
36.3

>  <PUBCHEM_MONOISOTOPIC_WEIGHT>  (12) 
324.16379146

>  <PUBCHEM_TOTAL_CHARGE>  (12) 
0

>  <PUBCHEM_HEAVY_ATOM_COUNT>  (12) 
24

>  <PUBCHEM_ATOM_DEF_STEREO_COUNT>  (12) 
0

>  <PUBCHEM_ATOM_UDEF_STEREO_COUNT>  (12) 
1

>  <PUBCHEM_BOND_DEF_STEREO_COUNT>  (12) 
0

>  <PUBCHEM_BOND_UDEF_STEREO_COUNT>  (12) 
0

>  <PUBCHEM_ISOTOPIC_ATOM_COUNT>  (12) 
0

>  <PUBCHEM_COMPONENT_COUNT>  (12) 
1

>  <PUBCHEM_CACTVS_TAUTO_COUNT>  (12) 
1

>  <PUBCHEM_COORDINATE_TYPE>  (12) 
1
5
255

>  <PUBCHEM_BONDANNOTATIONS>  (12) 
10  15  8
10  16  8
13  17  8
14  18  8
15  19  8
16  20  8
17  18  8
19  21  8
20  21  8
5  6  3
7  13  8
7  8  8
8  14  8

$$$$
213039
     RDKit          2D

 38 41  0  0  1  0  0  0  0  0999 V2000
    6.3238    1.8811    0.0000 S   0  0  0  0  0  0  0  0  0  0  0  0
    8.1779   -5.4433    0.0000 O   0  0  0  0  0  0  0  0  0  0  0  0
   10.0752   -5.4390    0.0000 O   0  0  0  0  0  0  0  0  0  0  0  0
    7.8689   -2.8742    0.0000 O   0  0  0  0  0  0  0  0  0  0  0  0
    4.3164   -0.3484    0.0000 O   0  0  0  0  0  0  0  0  0  0  0  0
    6.2216   -3.4094    0.0000 O   0  0  0  0  0  0  0  0  0  0  0  0
    5.5807    2.5502    0.0000 O   0  0  0  0  0  0  0  0  0  0  0  0
    7.0670    1.2119    0.0000 O   0  0  0  0  0  0  0  0  0  0  0  0
    6.5817   -1.7152    0.0000 N   0  0  0  0  0  0  0  0  0  0  0  0
    5.6547    1.1379    0.0000 N   0  0  0  0  0  0  0  0  0  0  0  0
    9.0003    4.8536    0.0000 N   0  0  0  0  0  0  0  0  0  0  0  0
    9.1290   -4.1343    0.0000 C   0  0  0  0  0  0  0  0  0  0  0  0
    9.1290   -5.1343    0.0000 C   0  0  0  0  0  0  0  0  0  0  0  0
    8.1779   -3.8253    0.0000 C   0  0  0  0  0  0  0  0  0  0  0  0
   10.0752   -3.8296    0.0000 C   0  0  0  0  0  0  0  0  0  0  0  0
    7.5901   -4.6343    0.0000 C   0  0  0  0  0  0  0  0  0  0  0  0
   10.6588   -4.6343    0.0000 C   0  0  0  0  0  0  0  0  0  0  0  0
    5.6036   -1.5073    0.0000 C   0  0  0  0  0  0  0  0  0  0  0  0
    5.2946   -0.5563    0.0000 C   0  0  0  0  0  0  0  0  0  0  0  0
    6.8907   -2.6663    0.0000 C   0  0  0  0  0  0  0  0  0  0  0  0
    5.9637    0.1869    0.0000 C   0  0  0  0  0  0  0  0  0  0  0  0
    4.9344   -2.2505    0.0000 C   0  0  0  0  0  0  0  0  0  0  0  0
    4.6765    1.3458    0.0000 C   0  0  0  0  0  0  0  0  0  0  0  0
    4.3675    2.2969    0.0000 C   0  0  0  0  0  0  0  0  0  0  0  0
    3.9563   -2.0426    0.0000 C   0  0  0  0  0  0  0  0  0  0  0  0
    6.9929    2.6242    0.0000 C   0  0  0  0  0  0  0  0  0  0  0  0
    3.3894    2.5048    0.0000 C   0  0  0  0  0  0  0  0  0  0  0  0
    5.0366    3.0400    0.0000 C   0  0  0  0  0  0  0  0  0  0  0  0
    3.2872   -2.7857    0.0000 C   0  0  0  0  0  0  0  0  0  0  0  0
    3.6473   -1.0915    0.0000 C   0  0  0  0  0  0  0  0  0  0  0  0
    7.9711    2.4163    0.0000 C   0  0  0  0  0  0  0  0  0  0  0  0
    6.6839    3.5753    0.0000 C   0  0  0  0  0  0  0  0  0  0  0  0
    2.3090   -2.5778    0.0000 C   0  0  0  0  0  0  0  0  0  0  0  0
    2.6691   -0.8836    0.0000 C   0  0  0  0  0  0  0  0  0  0  0  0
    2.0000   -1.6267    0.0000 C   0  0  0  0  0  0  0  0  0  0  0  0
    8.6402    3.1594    0.0000 C   0  0  0  0  0  0  0  0  0  0  0  0
    7.3530    4.3184    0.0000 C   0  0  0  0  0  0  0  0  0  0  0  0
    8.3312    4.1105    0.0000 C   0  0  0  0  0  0  0  0  0  0  0  0
  1  7  2  0
  1  8  2  0
  1 10  1  0
  1 26  1  0
 13  2  1  6
  2 16  1  0
  3 13  1  0
  3 17  1  0
 14  4  1  6
  4 20  1  0
 19  5  1  6
  6 20  2  0
 18  9  1  0
  9 20  1  0
 10 21  1  0
 10 23  1  0
 11 38  1  0
 12 13  1  0
 12 14  1  0
 12 15  1  6
 14 16  1  0
 15 17  1  0
 18 19  1  0
 18 22  1  1
 19 21  1  0
 22 25  1  0
 23 24  1  0
 24 27  1  0
 24 28  1  0
 25 29  2  0
 25 30  1  0
 26 31  2  0
 26 32  1  0
 29 33  1  0
 30 34  2  0
 31 36  1  0
 32 37  2  0
 33 35  2  0
 34 35  1  0
 36 38  2  0
 37 38  1  0
M  END
>  <PUBCHEM_COMPOUND_CID>  (13) 
213039

>  <PUBCHEM_COMPOUND_CANONICALIZED>  (13) 
1

>  <PUBCHEM_CACTVS_COMPLEXITY>  (13) 
853

>  <PUBCHEM_CACTVS_HBOND_ACCEPTOR>  (13) 
9

>  <PUBCHEM_CACTVS_HBOND_DONOR>  (13) 
3

>  <PUBCHEM_CACTVS_ROTATABLE_BOND>  (13) 
12

>  <PUBCHEM_CACTVS_SUBSKEYS>  (13) 
AAADcfB7OABAAAAAAAAAAAAAAAAAASJAAAAwYAAAAAASAAABQAAAHgQQSAAADTzx2AcyyYLABgKIAiRCWHDCABAgAgAIiJgIZIkbMCKA0ZGuYABllgCeyAfQ4KgOAAQAAAAAAAAACAAAAAAAAAAAAAAAAA==

>  <PUBCHEM_IUPAC_OPENEYE_NAME>  (13) 
[(3aS,4R,6aR)-2,3,3a,4,5,6a-hexahydrofuro[2,3-b]furan-4-yl] N-[(1S,2R)-3-[(4-aminophenyl)sulfonyl-isobutyl-amino]-1-benzyl-2-hydroxy-propyl]carbamate

>  <PUBCHEM_IUPAC_CAS_NAME>  (13) 
N-[(2S,3R)-4-[(4-aminophenyl)sulfonyl-(2-methylpropyl)amino]-3-hydroxy-1-phenylbutan-2-yl]carbamic acid [(3aS,4R,6aR)-2,3,3a,4,5,6a-hexahydrofuro[2,3-b]furan-4-yl] ester

>  <PUBCHEM_IUPAC_NAME_MARKUP>  (13) 
[(3<I>a</I><I>S</I>,4<I>R</I>,6<I>a</I><I>R</I>)-2,3,3<I>a</I>,4,5,6<I>a</I>-hexahydrofuro[2,3-b]furan-4-yl] <I>N</I>-[(2<I>S</I>,3<I>R</I>)-4-[(4-aminophenyl)sulfonyl-(2-methylpropyl)amino]-3-hydroxy-1-phenylbutan-2-yl]carbamate

>  <PUBCHEM_IUPAC_NAME>  (13) 
[(3aS,4R,6aR)-2,3,3a,4,5,6a-hexahydrofuro[2,3-b]furan-4-yl] N-[(2S,3R)-4-[(4-aminophenyl)sulfonyl-(2-methylpropyl)amino]-3-hydroxy-1-phenylbutan-2-yl]carbamate

>  <PUBCHEM_IUPAC_SYSTEMATIC_NAME>  (13) 
[(3aS,4R,6aR)-2,3,3a,4,5,6a-hexahydrofuro[2,3-b]furan-4-yl] N-[(2S,3R)-4-[(4-aminophenyl)sulfonyl-(2-methylpropyl)amino]-3-oxidanyl-1-phenyl-butan-2-yl]carbamate

>  <PUBCHEM_IUPAC_TRADITIONAL_NAME>  (13) 
N-[(1S,2R)-1-benzyl-2-hydroxy-3-[isobutyl(sulfanilyl)amino]propyl]carbamic acid [(3aS,4R,6aR)-2,3,3a,4,5,6a-hexahydrofuro[2,3-b]furan-4-yl] ester

>  <PUBCHEM_IUPAC_INCHI>  (13) 
InChI=1S/C27H37N3O7S/c1-18(2)15-30(38(33,34)21-10-8-20(28)9-11-21)16-24(31)23(14-19-6-4-3-5-7-19)29-27(32)37-25-17-36-26-22(25)12-13-35-26/h3-11,18,22-26,31H,12-17,28H2,1-2H3,(H,29,32)/t22-,23-,24+,25-,26+/m0/s1

>  <PUBCHEM_IUPAC_INCHIKEY>  (13) 
CJBJHOAVZSMMDJ-HEXNFIEUSA-N

>  <PUBCHEM_XLOGP3_AA>  (13) 
2.9

>  <PUBCHEM_EXACT_MASS>  (13) 
547.23522170

>  <PUBCHEM_MOLECULAR_FORMULA>  (13) 
C27H37N3O7S

>  <PUBCHEM_MOLECULAR_WEIGHT>  (13) 
547.7

>  <PUBCHEM_OPENEYE_CAN_SMILES>  (13) 
CC(C)CN(CC(C(CC1=CC=CC=C1)NC(=O)OC2COC3C2CCO3)O)S(=O)(=O)C4=CC=C(C=C4)N

>  <PUBCHEM_OPENEYE_ISO_SMILES>  (13) 
CC(C)CN(C[C@H]([C@H](CC1=CC=CC=C1)NC(=O)O[C@H]2CO[C@@H]3[C@H]2CCO3)O)S(=O)(=O)C4=CC=C(C=C4)N

>  <PUBCHEM_CACTVS_TPSA>  (13) 
149

>  <PUBCHEM_MONOISOTOPIC_WEIGHT>  (13) 
547.23522170

>  <PUBCHEM_TOTAL_CHARGE>  (13) 
0

>  <PUBCHEM_HEAVY_ATOM_COUNT>  (13) 
38

>  <PUBCHEM_ATOM_DEF_STEREO_COUNT>  (13) 
5

>  <PUBCHEM_ATOM_UDEF_STEREO_COUNT>  (13) 
0

>  <PUBCHEM_BOND_DEF_STEREO_COUNT>  (13) 
0

>  <PUBCHEM_BOND_UDEF_STEREO_COUNT>  (13) 
0

>  <PUBCHEM_ISOTOPIC_ATOM_COUNT>  (13) 
0

>  <PUBCHEM_COMPONENT_COUNT>  (13) 
1

>  <PUBCHEM_CACTVS_TAUTO_COUNT>  (13) 
2

>  <PUBCHEM_COORDINATE_TYPE>  (13) 
1
5
255

>  <PUBCHEM_BONDANNOTATIONS>  (13) 
12  39  5
13  40  5
25  29  8
25  30  8
26  31  8
26  32  8
29  33  8
30  34  8
31  36  8
32  37  8
33  35  8
34  35  8
36  38  8
37  38  8
14  4  6
19  5  6
18  9  5

$$$$
58460047
     RDKit          2D

 29 31  0  0  0  0  0  0  0  0999 V2000
    2.0000    1.6344    0.0000 Cl  0  0  0  0  0  0  0  0  0  0  0  0
    8.1962    2.6344    0.0000 F   0  0  0  0  0  0  0  0  0  0  0  0
    7.1962    3.6344    0.0000 F   0  0  0  0  0  0  0  0  0  0  0  0
    6.1962    2.6344    0.0000 F   0  0  0  0  0  0  0  0  0  0  0  0
    5.4641    1.6344    0.0000 O   0  0  0  0  0  0  0  0  0  0  0  0
    5.4641   -0.3656    0.0000 O   0  0  0  0  0  0  0  0  0  0  0  0
   10.6394   -2.0975    0.0000 O   0  0  0  0  0  0  0  0  0  0  0  0
    7.1962   -0.3656    0.0000 N   0  0  0  0  0  0  0  0  0  0  0  0
    8.9757   -1.4588    0.0000 N   0  0  0  0  0  0  0  0  0  0  0  0
    8.1667   -2.8601    0.0000 N   0  0  0  0  0  0  0  0  0  0  0  0
    9.1448   -3.0680    0.0000 N   0  0  0  0  0  0  0  0  0  0  0  0
    3.7320   -2.3656    0.0000 N   0  0  0  0  0  0  0  0  0  0  0  0
    7.1962   -1.3656    0.0000 C   0  0  0  0  0  0  0  0  0  0  0  0
    8.0622   -1.8656    0.0000 C   0  0  0  0  0  0  0  0  0  0  0  0
    6.3301    0.1344    0.0000 C   0  0  0  0  0  0  0  0  0  0  0  0
    6.3301    1.1344    0.0000 C   0  0  0  0  0  0  0  0  0  0  0  0
    7.1962    1.6344    0.0000 C   0  0  0  0  0  0  0  0  0  0  0  0
    8.0622    0.1344    0.0000 C   0  0  0  0  0  0  0  0  0  0  0  0
    8.0622    1.1344    0.0000 C   0  0  0  0  0  0  0  0  0  0  0  0
    9.6448   -2.2020    0.0000 C   0  0  0  0  0  0  0  0  0  0  0  0
    7.1962    2.6344    0.0000 C   0  0  0  0  0  0  0  0  0  0  0  0
    9.1836   -0.4807    0.0000 C   0  0  0  0  0  0  0  0  0  0  0  0
    4.5981    1.1344    0.0000 C   0  0  0  0  0  0  0  0  0  0  0  0
    4.5981    0.1344    0.0000 C   0  0  0  0  0  0  0  0  0  0  0  0
    3.7320    1.6344    0.0000 C   0  0  0  0  0  0  0  0  0  0  0  0
    3.7320   -0.3656    0.0000 C   0  0  0  0  0  0  0  0  0  0  0  0
    2.8660    1.1344    0.0000 C   0  0  0  0  0  0  0  0  0  0  0  0
    2.8660    0.1344    0.0000 C   0  0  0  0  0  0  0  0  0  0  0  0
    3.7320   -1.3656    0.0000 C   0  0  0  0  0  0  0  0  0  0  0  0
  1 27  1  0
  2 21  1  0
  3 21  1  0
  4 21  1  0
  5 16  1  0
  5 23  1  0
  6 15  2  0
  7 20  2  0
  8 13  1  0
  8 15  1  0
  8 18  1  0
  9 14  1  0
  9 20  1  0
  9 22  1  0
 10 11  1  0
 10 14  2  0
 11 20  1  0
 12 29  3  0
 13 14  1  0
 15 16  1  0
 16 17  2  0
 17 19  1  0
 17 21  1  0
 18 19  2  0
 23 24  2  0
 23 25  1  0
 24 26  1  0
 25 27  2  0
 26 28  2  0
 26 29  1  0
 27 28  1  0
M  END
>  <PUBCHEM_COMPOUND_CID>  (14) 
58460047

>  <PUBCHEM_COMPOUND_CANONICALIZED>  (14) 
1

>  <PUBCHEM_CACTVS_COMPLEXITY>  (14) 
860

>  <PUBCHEM_CACTVS_HBOND_ACCEPTOR>  (14) 
8

>  <PUBCHEM_CACTVS_HBOND_DONOR>  (14) 
1

>  <PUBCHEM_CACTVS_ROTATABLE_BOND>  (14) 
4

>  <PUBCHEM_CACTVS_SUBSKEYS>  (14) 
AAADccB7sYAEAAAAAAAAAAAAAAAAAQAAAAAwQAAAAAAAAAABAAAAHwIYAAAADAbBmDQzBoNiBAC4BiN2cAKyCAAgJwAPiABeCsiO5iKFMx6TOCCkzhOYqQ+AwBAOAAABIQAAAAAAAAJCAAAAAAAAAAAAAA==

>  <PUBCHEM_IUPAC_OPENEYE_NAME>  (14) 
3-chloro-5-[[1-[(4-methyl-5-oxo-1H-1,2,4-triazol-3-yl)methyl]-2-oxo-4-(trifluoromethyl)-3-pyridyl]oxy]benzonitrile

>  <PUBCHEM_IUPAC_CAS_NAME>  (14) 
3-chloro-5-[[1-[(4-methyl-5-oxo-1H-1,2,4-triazol-3-yl)methyl]-2-oxo-4-(trifluoromethyl)-3-pyridinyl]oxy]benzonitrile

>  <PUBCHEM_IUPAC_NAME_MARKUP>  (14) 
3-chloro-5-[1-[(4-methyl-5-oxo-1<I>H</I>-1,2,4-triazol-3-yl)methyl]-2-oxo-4-(trifluoromethyl)pyridin-3-yl]oxybenzonitrile

>  <PUBCHEM_IUPAC_NAME>  (14) 
3-chloro-5-[1-[(4-methyl-5-oxo-1H-1,2,4-triazol-3-yl)methyl]-2-oxo-4-(trifluoromethyl)pyridin-3-yl]oxybenzonitrile

>  <PUBCHEM_IUPAC_SYSTEMATIC_NAME>  (14) 
3-chloranyl-5-[1-[(4-methyl-5-oxidanylidene-1H-1,2,4-triazol-3-yl)methyl]-2-oxidanylidene-4-(trifluoromethyl)pyridin-3-yl]oxy-benzenecarbonitrile

>  <PUBCHEM_IUPAC_TRADITIONAL_NAME>  (14) 
3-chloro-5-[[2-keto-1-[(5-keto-4-methyl-1H-1,2,4-triazol-3-yl)methyl]-4-(trifluoromethyl)-3-pyridyl]oxy]benzonitrile

>  <PUBCHEM_IUPAC_INCHI>  (14) 
InChI=1S/C17H11ClF3N5O3/c1-25-13(23-24-16(25)28)8-26-3-2-12(17(19,20)21)14(15(26)27)29-11-5-9(7-22)4-10(18)6-11/h2-6H,8H2,1H3,(H,24,28)

>  <PUBCHEM_IUPAC_INCHIKEY>  (14) 
ZIAOVIPSKUPPQW-UHFFFAOYSA-N

>  <PUBCHEM_XLOGP3_AA>  (14) 
2.1

>  <PUBCHEM_EXACT_MASS>  (14) 
425.0502514

>  <PUBCHEM_MOLECULAR_FORMULA>  (14) 
C17H11ClF3N5O3

>  <PUBCHEM_MOLECULAR_WEIGHT>  (14) 
425.7

>  <PUBCHEM_OPENEYE_CAN_SMILES>  (14) 
CN1C(=NNC1=O)CN2C=CC(=C(C2=O)OC3=CC(=CC(=C3)C#N)Cl)C(F)(F)F

>  <PUBCHEM_OPENEYE_ISO_SMILES>  (14) 
CN1C(=NNC1=O)CN2C=CC(=C(C2=O)OC3=CC(=CC(=C3)C#N)Cl)C(F)(F)F

>  <PUBCHEM_CACTVS_TPSA>  (14) 
98

>  <PUBCHEM_MONOISOTOPIC_WEIGHT>  (14) 
425.0502514

>  <PUBCHEM_TOTAL_CHARGE>  (14) 
0

>  <PUBCHEM_HEAVY_ATOM_COUNT>  (14) 
29

>  <PUBCHEM_ATOM_DEF_STEREO_COUNT>  (14) 
0

>  <PUBCHEM_ATOM_UDEF_STEREO_COUNT>  (14) 
0

>  <PUBCHEM_BOND_DEF_STEREO_COUNT>  (14) 
0

>  <PUBCHEM_BOND_UDEF_STEREO_COUNT>  (14) 
0

>  <PUBCHEM_ISOTOPIC_ATOM_COUNT>  (14) 
0

>  <PUBCHEM_COMPONENT_COUNT>  (14) 
1

>  <PUBCHEM_CACTVS_TAUTO_COUNT>  (14) 
2

>  <PUBCHEM_COORDINATE_TYPE>  (14) 
1
5
255

>  <PUBCHEM_BONDANNOTATIONS>  (14) 
10  11  8
10  14  8
11  20  8
15  16  8
16  17  8
17  19  8
18  19  8
23  24  8
23  25  8
24  26  8
25  27  8
26  28  8
27  28  8
8  15  8
8  18  8
9  14  8
9  20  8

$$$$
3559
     RDKit          2D

 26 28  0  0  0  0  0  0  0  0999 V2000
    6.5981    6.2320    0.0000 Cl  0  0  0  0  0  0  0  0  0  0  0  0
    2.8660   -6.2320    0.0000 F   0  0  0  0  0  0  0  0  0  0  0  0
    4.0981    3.6340    0.0000 O   0  0  0  0  0  0  0  0  0  0  0  0
    2.0000   -1.7320    0.0000 O   0  0  0  0  0  0  0  0  0  0  0  0
    4.5981    0.7679    0.0000 N   0  0  0  0  0  0  0  0  0  0  0  0
    4.5981    2.7680    0.0000 C   0  0  0  0  0  0  0  0  0  0  0  0
    5.4641    2.2680    0.0000 C   0  0  0  0  0  0  0  0  0  0  0  0
    3.7320    2.2680    0.0000 C   0  0  0  0  0  0  0  0  0  0  0  0
    5.4641    1.2680    0.0000 C   0  0  0  0  0  0  0  0  0  0  0  0
    3.7320    1.2680    0.0000 C   0  0  0  0  0  0  0  0  0  0  0  0
    4.5981   -0.2321    0.0000 C   0  0  0  0  0  0  0  0  0  0  0  0
    5.0981    3.6340    0.0000 C   0  0  0  0  0  0  0  0  0  0  0  0
    3.7320   -0.7321    0.0000 C   0  0  0  0  0  0  0  0  0  0  0  0
    6.0981    3.6340    0.0000 C   0  0  0  0  0  0  0  0  0  0  0  0
    4.5981    4.5000    0.0000 C   0  0  0  0  0  0  0  0  0  0  0  0
    3.7320   -1.7320    0.0000 C   0  0  0  0  0  0  0  0  0  0  0  0
    6.5981    4.5000    0.0000 C   0  0  0  0  0  0  0  0  0  0  0  0
    5.0981    5.3660    0.0000 C   0  0  0  0  0  0  0  0  0  0  0  0
    2.8660   -2.2320    0.0000 C   0  0  0  0  0  0  0  0  0  0  0  0
    6.0981    5.3660    0.0000 C   0  0  0  0  0  0  0  0  0  0  0  0
    2.8660   -3.2320    0.0000 C   0  0  0  0  0  0  0  0  0  0  0  0
    2.0000   -3.7320    0.0000 C   0  0  0  0  0  0  0  0  0  0  0  0
    3.7320   -3.7320    0.0000 C   0  0  0  0  0  0  0  0  0  0  0  0
    2.0000   -4.7320    0.0000 C   0  0  0  0  0  0  0  0  0  0  0  0
    3.7320   -4.7320    0.0000 C   0  0  0  0  0  0  0  0  0  0  0  0
    2.8660   -5.2320    0.0000 C   0  0  0  0  0  0  0  0  0  0  0  0
  1 20  1  0
  2 26  1  0
  3  6  1  0
  4 19  2  0
  5  9  1  0
  5 10  1  0
  5 11  1  0
  6  7  1  0
  6  8  1  0
  6 12  1  0
  7  9  1  0
  8 10  1  0
 11 13  1  0
 12 14  2  0
 12 15  1  0
 13 16  1  0
 14 17  1  0
 15 18  2  0
 16 19  1  0
 17 20  2  0
 18 20  1  0
 19 21  1  0
 21 22  2  0
 21 23  1  0
 22 24  1  0
 23 25  2  0
 24 26  2  0
 25 26  1  0
M  END
>  <PUBCHEM_COMPOUND_CID>  (15) 
3559

>  <PUBCHEM_COMPOUND_CANONICALIZED>  (15) 
1

>  <PUBCHEM_CACTVS_COMPLEXITY>  (15) 
451

>  <PUBCHEM_CACTVS_HBOND_ACCEPTOR>  (15) 
4

>  <PUBCHEM_CACTVS_HBOND_DONOR>  (15) 
1

>  <PUBCHEM_CACTVS_ROTATABLE_BOND>  (15) 
6

>  <PUBCHEM_CACTVS_SUBSKEYS>  (15) 
AAADceB6MQAEAAAAAAAAAAAAAAAAAAAAAAA8YIAAAAAAAAABQAAAHwIACAAADEbBmCwwAIMAAgCIAqBSAAACAAAkBQAIiAEICsgIJjKBlxCEcQAmwAGImYecyOCOhAAAAAAAAAAIAAAAAAAAAAAAAAAAAA==

>  <PUBCHEM_IUPAC_OPENEYE_NAME>  (15) 
4-[4-(4-chlorophenyl)-4-hydroxy-1-piperidyl]-1-(4-fluorophenyl)butan-1-one

>  <PUBCHEM_IUPAC_CAS_NAME>  (15) 
4-[4-(4-chlorophenyl)-4-hydroxy-1-piperidinyl]-1-(4-fluorophenyl)-1-butanone

>  <PUBCHEM_IUPAC_NAME_MARKUP>  (15) 
4-[4-(4-chlorophenyl)-4-hydroxypiperidin-1-yl]-1-(4-fluorophenyl)butan-1-one

>  <PUBCHEM_IUPAC_NAME>  (15) 
4-[4-(4-chlorophenyl)-4-hydroxypiperidin-1-yl]-1-(4-fluorophenyl)butan-1-one

>  <PUBCHEM_IUPAC_SYSTEMATIC_NAME>  (15) 
4-[4-(4-chlorophenyl)-4-oxidanyl-piperidin-1-yl]-1-(4-fluorophenyl)butan-1-one

>  <PUBCHEM_IUPAC_TRADITIONAL_NAME>  (15) 
4-[4-(4-chlorophenyl)-4-hydroxy-piperidino]-1-(4-fluorophenyl)butan-1-one

>  <PUBCHEM_IUPAC_INCHI>  (15) 
InChI=1S/C21H23ClFNO2/c22-18-7-5-17(6-8-18)21(26)11-14-24(15-12-21)13-1-2-20(25)16-3-9-19(23)10-4-16/h3-10,26H,1-2,11-15H2

>  <PUBCHEM_IUPAC_INCHIKEY>  (15) 
LNEPOXFFQSENCJ-UHFFFAOYSA-N

>  <PUBCHEM_XLOGP3>  (15) 
3.2

>  <PUBCHEM_EXACT_MASS>  (15) 
375.1401348

>  <PUBCHEM_MOLECULAR_FORMULA>  (15) 
C21H23ClFNO2

>  <PUBCHEM_MOLECULAR_WEIGHT>  (15) 
375.9

>  <PUBCHEM_OPENEYE_CAN_SMILES>  (15) 
C1CN(CCC1(C2=CC=C(C=C2)Cl)O)CCCC(=O)C3=CC=C(C=C3)F

>  <PUBCHEM_OPENEYE_ISO_SMILES>  (15) 
C1CN(CCC1(C2=CC=C(C=C2)Cl)O)CCCC(=O)C3=CC=C(C=C3)F

>  <PUBCHEM_CACTVS_TPSA>  (15) 
40.5

>  <PUBCHEM_MONOISOTOPIC_WEIGHT>  (15) 
375.1401348

>  <PUBCHEM_TOTAL_CHARGE>  (15) 
0

>  <PUBCHEM_HEAVY_ATOM_COUNT>  (15) 
26

>  <PUBCHEM_ATOM_DEF_STEREO_COUNT>  (15) 
0

>  <PUBCHEM_ATOM_UDEF_STEREO_COUNT>  (15) 
0

>  <PUBCHEM_BOND_DEF_STEREO_COUNT>  (15) 
0

>  <PUBCHEM_BOND_UDEF_STEREO_COUNT>  (15) 
0

>  <PUBCHEM_ISOTOPIC_ATOM_COUNT>  (15) 
0

>  <PUBCHEM_COMPONENT_COUNT>  (15) 
1

>  <PUBCHEM_CACTVS_TAUTO_COUNT>  (15) 
-1

>  <PUBCHEM_COORDINATE_TYPE>  (15) 
1
5
255

>  <PUBCHEM_BONDANNOTATIONS>  (15) 
12  14  8
12  15  8
14  17  8
15  18  8
17  20  8
18  20  8
21  22  8
21  23  8
22  24  8
23  25  8
24  26  8
25  26  8

$$$$
3639
     RDKit          2D

 17 18  0  0  0  0  0  0  0  0999 V2000
    3.4030    1.2327    0.0000 Cl  0  0  0  0  0  0  0  0  0  0  0  0
    6.8950   -0.8020    0.0000 S   0  0  0  0  0  0  0  0  0  0  0  0
    3.4030   -0.7673    0.0000 S   0  0  0  0  0  0  0  0  0  0  0  0
    7.3849   -1.6737    0.0000 O   0  0  0  0  0  0  0  0  0  0  0  0
    6.3850   -1.6622    0.0000 O   0  0  0  0  0  0  0  0  0  0  0  0
    3.9030   -1.6333    0.0000 O   0  0  0  0  0  0  0  0  0  0  0  0
    2.9030    0.0987    0.0000 O   0  0  0  0  0  0  0  0  0  0  0  0
    7.8010   -0.2881    0.0000 N   0  0  0  0  0  0  0  0  0  0  0  0
    6.8950    1.2674    0.0000 N   0  0  0  0  0  0  0  0  0  0  0  0
    2.5369   -1.2673    0.0000 N   0  0  0  0  0  0  0  0  0  0  0  0
    6.0010   -0.2673    0.0000 C   0  0  0  0  0  0  0  0  0  0  0  0
    6.0010    0.7327    0.0000 C   0  0  0  0  0  0  0  0  0  0  0  0
    7.8010    0.7535    0.0000 C   0  0  0  0  0  0  0  0  0  0  0  0
    5.1350   -0.7673    0.0000 C   0  0  0  0  0  0  0  0  0  0  0  0
    4.2690   -0.2673    0.0000 C   0  0  0  0  0  0  0  0  0  0  0  0
    5.1350    1.2327    0.0000 C   0  0  0  0  0  0  0  0  0  0  0  0
    4.2690    0.7327    0.0000 C   0  0  0  0  0  0  0  0  0  0  0  0
  1 17  1  0
  2  4  2  0
  2  5  2  0
  2  8  1  0
  2 11  1  0
  3  6  2  0
  3  7  2  0
  3 10  1  0
  3 15  1  0
  8 13  1  0
  9 12  1  0
  9 13  1  0
 11 12  2  0
 11 14  1  0
 12 16  1  0
 14 15  2  0
 15 17  1  0
 16 17  2  0
M  END
>  <PUBCHEM_COMPOUND_CID>  (16) 
3639

>  <PUBCHEM_COMPOUND_CANONICALIZED>  (16) 
1

>  <PUBCHEM_CACTVS_COMPLEXITY>  (16) 
494

>  <PUBCHEM_CACTVS_HBOND_ACCEPTOR>  (16) 
7

>  <PUBCHEM_CACTVS_HBOND_DONOR>  (16) 
3

>  <PUBCHEM_CACTVS_ROTATABLE_BOND>  (16) 
1

>  <PUBCHEM_CACTVS_SUBSKEYS>  (16) 
AAADccBjOABkAAAAAAAAAAAAAAAAAAAAAAA8QAAAAAAAAACxAAAAHAYQQAAACAqBUCQxwYLAAAKAACRCQHDCABAhBwAAiJwIZoiIICLBkpGEIAhgkAJIyCcQAAAAAAYAAEIAAYAADAAAhAADAAAAAAAAAA==

>  <PUBCHEM_IUPAC_OPENEYE_NAME>  (16) 
6-chloro-1,1-dioxo-3,4-dihydro-2H-1lambda6,2,4-benzothiadiazine-7-sulfonamide

>  <PUBCHEM_IUPAC_CAS_NAME>  (16) 
6-chloro-1,1-dioxo-3,4-dihydro-2H-1lambda6,2,4-benzothiadiazine-7-sulfonamide

>  <PUBCHEM_IUPAC_NAME_MARKUP>  (16) 
6-chloro-1,1-dioxo-3,4-dihydro-2<I>H</I>-1&lambda;<SUP>6</SUP>,2,4-benzothiadiazine-7-sulfonamide

>  <PUBCHEM_IUPAC_NAME>  (16) 
6-chloro-1,1-dioxo-3,4-dihydro-2H-1lambda6,2,4-benzothiadiazine-7-sulfonamide

>  <PUBCHEM_IUPAC_SYSTEMATIC_NAME>  (16) 
6-chloranyl-1,1-bis(oxidanylidene)-3,4-dihydro-2H-1lambda6,2,4-benzothiadiazine-7-sulfonamide

>  <PUBCHEM_IUPAC_TRADITIONAL_NAME>  (16) 
6-chloro-1,1-diketo-3,4-dihydro-2H-1lambda6,2,4-benzothiadiazine-7-sulfonamide

>  <PUBCHEM_IUPAC_INCHI>  (16) 
InChI=1S/C7H8ClN3O4S2/c8-4-1-5-7(2-6(4)16(9,12)13)17(14,15)11-3-10-5/h1-2,10-11H,3H2,(H2,9,12,13)

>  <PUBCHEM_IUPAC_INCHIKEY>  (16) 
JZUFKLXOESDKRF-UHFFFAOYSA-N

>  <PUBCHEM_XLOGP3>  (16) 
-0.1

>  <PUBCHEM_EXACT_MASS>  (16) 
296.9644758

>  <PUBCHEM_MOLECULAR_FORMULA>  (16) 
C7H8ClN3O4S2

>  <PUBCHEM_MOLECULAR_WEIGHT>  (16) 
297.7

>  <PUBCHEM_OPENEYE_CAN_SMILES>  (16) 
C1NC2=CC(=C(C=C2S(=O)(=O)N1)S(=O)(=O)N)Cl

>  <PUBCHEM_OPENEYE_ISO_SMILES>  (16) 
C1NC2=CC(=C(C=C2S(=O)(=O)N1)S(=O)(=O)N)Cl

>  <PUBCHEM_CACTVS_TPSA>  (16) 
135

>  <PUBCHEM_MONOISOTOPIC_WEIGHT>  (16) 
296.9644758

>  <PUBCHEM_TOTAL_CHARGE>  (16) 
0

>  <PUBCHEM_HEAVY_ATOM_COUNT>  (16) 
17

>  <PUBCHEM_ATOM_DEF_STEREO_COUNT>  (16) 
0

>  <PUBCHEM_ATOM_UDEF_STEREO_COUNT>  (16) 
0

>  <PUBCHEM_BOND_DEF_STEREO_COUNT>  (16) 
0

>  <PUBCHEM_BOND_UDEF_STEREO_COUNT>  (16) 
0

>  <PUBCHEM_ISOTOPIC_ATOM_COUNT>  (16) 
0

>  <PUBCHEM_COMPONENT_COUNT>  (16) 
1

>  <PUBCHEM_CACTVS_TAUTO_COUNT>  (16) 
33

>  <PUBCHEM_COORDINATE_TYPE>  (16) 
1
5
255

>  <PUBCHEM_BONDANNOTATIONS>  (16) 
11  12  8
11  14  8
12  16  8
14  15  8
15  17  8
16  17  8

$$$$
1615
     RDKit          2D

 14 15  0  0  1  0  0  0  0  0999 V2000
    8.1424    0.4947    0.0000 O   0  0  0  0  0  0  0  0  0  0  0  0
    8.1424   -1.1147    0.0000 O   0  0  0  0  0  0  0  0  0  0  0  0
    2.8660    0.6900    0.0000 N   0  0  0  0  0  0  0  0  0  0  0  0
    3.7320    0.1900    0.0000 C   0  0  0  0  0  0  0  0  0  0  0  0
    4.5981    0.6900    0.0000 C   0  0  0  0  0  0  0  0  0  0  0  0
    5.4641    0.1900    0.0000 C   0  0  0  0  0  0  0  0  0  0  0  0
    3.7320   -0.8100    0.0000 C   0  0  0  0  0  0  0  0  0  0  0  0
    6.3301    0.6900    0.0000 C   0  0  0  0  0  0  0  0  0  0  0  0
    7.1962    0.1900    0.0000 C   0  0  0  0  0  0  0  0  0  0  0  0
    5.4641   -0.8100    0.0000 C   0  0  0  0  0  0  0  0  0  0  0  0
    7.1962   -0.8100    0.0000 C   0  0  0  0  0  0  0  0  0  0  0  0
    6.3301   -1.3100    0.0000 C   0  0  0  0  0  0  0  0  0  0  0  0
    2.0000    0.1900    0.0000 C   0  0  0  0  0  0  0  0  0  0  0  0
    8.7260   -0.3100    0.0000 C   0  0  0  0  0  0  0  0  0  0  0  0
  1  9  1  0
  1 14  1  0
  2 11  1  0
  2 14  1  0
  3  4  1  0
  3 13  1  0
  4  5  1  0
  4  7  1  0
  5  6  1  0
  6  8  1  0
  6 10  2  0
  8  9  2  0
  9 11  1  0
 10 12  1  0
 11 12  2  0
M  END
>  <PUBCHEM_COMPOUND_CID>  (17) 
1615

>  <PUBCHEM_COMPOUND_CANONICALIZED>  (17) 
1

>  <PUBCHEM_CACTVS_COMPLEXITY>  (17) 
186

>  <PUBCHEM_CACTVS_HBOND_ACCEPTOR>  (17) 
3

>  <PUBCHEM_CACTVS_HBOND_DONOR>  (17) 
1

>  <PUBCHEM_CACTVS_ROTATABLE_BOND>  (17) 
3

>  <PUBCHEM_CACTVS_SUBSKEYS>  (17) 
AAADccByMAAAAAAAAAAAAAAAAAAAASAAAAAwAAAAAAAAAEgBAAAAHgAQAAAADCzBmAcyDoLABACAAiBCAAACCAAgIAAIiIAOiIgdJiKEsRukMCIk0BEOqAeQ0LMOIAABAAAAQABAAAIAAACAAAAAAAAAAA==

>  <PUBCHEM_IUPAC_OPENEYE_NAME>  (17) 
1-(1,3-benzodioxol-5-yl)-N-methyl-propan-2-amine

>  <PUBCHEM_IUPAC_CAS_NAME>  (17) 
1-(1,3-benzodioxol-5-yl)-N-methyl-2-propanamine

>  <PUBCHEM_IUPAC_NAME_MARKUP>  (17) 
1-(1,3-benzodioxol-5-yl)-<I>N</I>-methylpropan-2-amine

>  <PUBCHEM_IUPAC_NAME>  (17) 
1-(1,3-benzodioxol-5-yl)-N-methylpropan-2-amine

>  <PUBCHEM_IUPAC_SYSTEMATIC_NAME>  (17) 
1-(1,3-benzodioxol-5-yl)-N-methyl-propan-2-amine

>  <PUBCHEM_IUPAC_TRADITIONAL_NAME>  (17) 
[2-(1,3-benzodioxol-5-yl)-1-methyl-ethyl]-methyl-amine

>  <PUBCHEM_IUPAC_INCHI>  (17) 
InChI=1S/C11H15NO2/c1-8(12-2)5-9-3-4-10-11(6-9)14-7-13-10/h3-4,6,8,12H,5,7H2,1-2H3

>  <PUBCHEM_IUPAC_INCHIKEY>  (17) 
SHXWCVYOXRDMCX-UHFFFAOYSA-N

>  <PUBCHEM_XLOGP3>  (17) 
2.2

>  <PUBCHEM_EXACT_MASS>  (17) 
193.110278721

>  <PUBCHEM_MOLECULAR_FORMULA>  (17) 
C11H15NO2

>  <PUBCHEM_MOLECULAR_WEIGHT>  (17) 
193.24

>  <PUBCHEM_OPENEYE_CAN_SMILES>  (17) 
CC(CC1=CC2=C(C=C1)OCO2)NC

>  <PUBCHEM_OPENEYE_ISO_SMILES>  (17) 
CC(CC1=CC2=C(C=C1)OCO2)NC

>  <PUBCHEM_CACTVS_TPSA>  (17) 
30.5

>  <PUBCHEM_MONOISOTOPIC_WEIGHT>  (17) 
193.110278721

>  <PUBCHEM_TOTAL_CHARGE>  (17) 
0

>  <PUBCHEM_HEAVY_ATOM_COUNT>  (17) 
14

>  <PUBCHEM_ATOM_DEF_STEREO_COUNT>  (17) 
0

>  <PUBCHEM_ATOM_UDEF_STEREO_COUNT>  (17) 
1

>  <PUBCHEM_BOND_DEF_STEREO_COUNT>  (17) 
0

>  <PUBCHEM_BOND_UDEF_STEREO_COUNT>  (17) 
0

>  <PUBCHEM_ISOTOPIC_ATOM_COUNT>  (17) 
0

>  <PUBCHEM_COMPONENT_COUNT>  (17) 
1

>  <PUBCHEM_CACTVS_TAUTO_COUNT>  (17) 
1

>  <PUBCHEM_COORDINATE_TYPE>  (17) 
1
5
255

>  <PUBCHEM_BONDANNOTATIONS>  (17) 
10  12  8
11  12  8
4  15  3
6  10  8
6  8  8
8  9  8
9  11  8

$$$$
3111
     RDKit          2D

 21 22  0  0  1  0  0  0  0  0999 V2000
    5.0289    2.8475    0.0000 S   0  0  0  0  0  0  0  0  0  0  0  0
    5.5202   -0.9442    0.0000 O   0  0  0  0  0  0  0  0  0  0  0  0
    5.6167    3.6565    0.0000 O   0  0  0  0  0  0  0  0  0  0  0  0
    4.2199    3.4353    0.0000 O   0  0  0  0  0  0  0  0  0  0  0  0
    5.8379    2.2597    0.0000 O   0  0  0  0  0  0  0  0  0  0  0  0
    2.9511   -0.6351    0.0000 N   0  0  0  0  0  0  0  0  0  0  0  0
    3.7601   -1.2229    0.0000 N   0  0  0  0  0  0  0  0  0  0  0  0
    4.8479    1.1249    0.0000 N   0  0  0  0  0  0  0  0  0  0  0  0
    4.2601    0.3159    0.0000 C   0  0  0  0  0  0  0  0  0  0  0  0
    3.2601    0.3159    0.0000 C   0  0  0  0  0  0  0  0  0  0  0  0
    4.5691   -0.6351    0.0000 C   0  0  0  0  0  0  0  0  0  0  0  0
    4.4411    2.0385    0.0000 C   0  0  0  0  0  0  0  0  0  0  0  0
    3.7601   -2.2229    0.0000 C   0  0  0  0  0  0  0  0  0  0  0  0
    2.6723    1.1249    0.0000 C   0  0  0  0  0  0  0  0  0  0  0  0
    2.0000   -0.9442    0.0000 C   0  0  0  0  0  0  0  0  0  0  0  0
    5.8424    1.0204    0.0000 C   0  0  0  0  0  0  0  0  0  0  0  0
    2.8940   -2.7229    0.0000 C   0  0  0  0  0  0  0  0  0  0  0  0
    4.6261   -2.7229    0.0000 C   0  0  0  0  0  0  0  0  0  0  0  0
    2.8940   -3.7229    0.0000 C   0  0  0  0  0  0  0  0  0  0  0  0
    4.6261   -3.7229    0.0000 C   0  0  0  0  0  0  0  0  0  0  0  0
    3.7601   -4.2229    0.0000 C   0  0  0  0  0  0  0  0  0  0  0  0
  1  3  1  0
  1  4  2  0
  1  5  2  0
  1 12  1  0
  2 11  2  0
  6  7  1  0
  6 10  1  0
  6 15  1  0
  7 11  1  0
  7 13  1  0
  8  9  1  0
  8 12  1  0
  8 16  1  0
  9 10  2  0
  9 11  1  0
 10 14  1  0
 13 17  2  0
 13 18  1  0
 17 19  1  0
 18 20  2  0
 19 21  2  0
 20 21  1  0
M  END
>  <PUBCHEM_COMPOUND_CID>  (18) 
3111

>  <PUBCHEM_COMPOUND_CANONICALIZED>  (18) 
1

>  <PUBCHEM_CACTVS_COMPLEXITY>  (18) 
546

>  <PUBCHEM_CACTVS_HBOND_ACCEPTOR>  (18) 
6

>  <PUBCHEM_CACTVS_HBOND_DONOR>  (18) 
1

>  <PUBCHEM_CACTVS_ROTATABLE_BOND>  (18) 
4

>  <PUBCHEM_CACTVS_SUBSKEYS>  (18) 
AAADceBzOABAAAAAAAAAAAAAAAAAAQAAAAAwAAAAAAAAAAABAAAAHgQICAAACAiBkASywIMAAIKIACVSUHCKBAAhAgAaiACIZMgIYCLAkbGUIAhghADIyUcQAAAAAAAAAAAAAAAAAAAAAAAAAAAAAAAAAA==

>  <PUBCHEM_IUPAC_OPENEYE_NAME>  (18) 
[(1,5-dimethyl-3-oxo-2-phenyl-pyrazol-4-yl)-methyl-amino]methanesulfonic acid

>  <PUBCHEM_IUPAC_CAS_NAME>  (18) 
[(1,5-dimethyl-3-oxo-2-phenyl-4-pyrazolyl)-methylamino]methanesulfonic acid

>  <PUBCHEM_IUPAC_NAME_MARKUP>  (18) 
[(1,5-dimethyl-3-oxo-2-phenylpyrazol-4-yl)-methylamino]methanesulfonic acid

>  <PUBCHEM_IUPAC_NAME>  (18) 
[(1,5-dimethyl-3-oxo-2-phenylpyrazol-4-yl)-methylamino]methanesulfonic acid

>  <PUBCHEM_IUPAC_SYSTEMATIC_NAME>  (18) 
[(1,5-dimethyl-3-oxidanylidene-2-phenyl-pyrazol-4-yl)-methyl-amino]methanesulfonic acid

>  <PUBCHEM_IUPAC_TRADITIONAL_NAME>  (18) 
[(3-keto-1,5-dimethyl-2-phenyl-3-pyrazolin-4-yl)-methyl-amino]methanesulfonic acid

>  <PUBCHEM_IUPAC_INCHI>  (18) 
InChI=1S/C13H17N3O4S/c1-10-12(14(2)9-21(18,19)20)13(17)16(15(10)3)11-7-5-4-6-8-11/h4-8H,9H2,1-3H3,(H,18,19,20)

>  <PUBCHEM_IUPAC_INCHIKEY>  (18) 
LVWZTYCIRDMTEY-UHFFFAOYSA-N

>  <PUBCHEM_XLOGP3>  (18) 
0

>  <PUBCHEM_EXACT_MASS>  (18) 
311.09397721

>  <PUBCHEM_MOLECULAR_FORMULA>  (18) 
C13H17N3O4S

>  <PUBCHEM_MOLECULAR_WEIGHT>  (18) 
311.36

>  <PUBCHEM_OPENEYE_CAN_SMILES>  (18) 
CC1=C(C(=O)N(N1C)C2=CC=CC=C2)N(C)CS(=O)(=O)O

>  <PUBCHEM_OPENEYE_ISO_SMILES>  (18) 
CC1=C(C(=O)N(N1C)C2=CC=CC=C2)N(C)CS(=O)(=O)O

>  <PUBCHEM_CACTVS_TPSA>  (18) 
89.5

>  <PUBCHEM_MONOISOTOPIC_WEIGHT>  (18) 
311.09397721

>  <PUBCHEM_TOTAL_CHARGE>  (18) 
0

>  <PUBCHEM_HEAVY_ATOM_COUNT>  (18) 
21

>  <PUBCHEM_ATOM_DEF_STEREO_COUNT>  (18) 
0

>  <PUBCHEM_ATOM_UDEF_STEREO_COUNT>  (18) 
0

>  <PUBCHEM_BOND_DEF_STEREO_COUNT>  (18) 
0

>  <PUBCHEM_BOND_UDEF_STEREO_COUNT>  (18) 
0

>  <PUBCHEM_ISOTOPIC_ATOM_COUNT>  (18) 
0

>  <PUBCHEM_COMPONENT_COUNT>  (18) 
1

>  <PUBCHEM_CACTVS_TAUTO_COUNT>  (18) 
-1

>  <PUBCHEM_COORDINATE_TYPE>  (18) 
1
5
255

>  <PUBCHEM_BONDANNOTATIONS>  (18) 
13  17  8
13  18  8
17  19  8
18  20  8
19  21  8
20  21  8
6  10  8
6  7  8
7  11  8
9  10  8
9  11  8

$$$$
5288826
     RDKit          2D

 21 25  0  0  1  0  0  0  0  0999 V2000
    2.2314    0.0528    0.0000 O   0  0  0  0  0  0  0  0  0  0  0  0
    2.0000   -2.4021    0.0000 O   0  0  0  0  0  0  0  0  0  0  0  0
    2.0000    2.4021    0.0000 O   0  0  0  0  0  0  0  0  0  0  0  0
    6.1607   -0.9511    0.0000 N   0  0  0  0  0  0  0  0  0  0  0  0
    3.6897   -0.4755    0.0000 C   0  0  0  0  0  0  0  0  0  0  0  0
    4.5133   -0.9511    0.0000 C   0  0  0  0  0  0  0  0  0  0  0  0
    5.3370   -0.4755    0.0000 C   0  0  0  0  0  0  0  0  0  0  0  0
    2.8660   -0.9511    0.0000 C   0  0  0  0  0  0  0  0  0  0  0  0
    4.2392    0.2219    0.0000 C   0  0  0  0  0  0  0  0  0  0  0  0
    3.6897    0.4755    0.0000 C   0  0  0  0  0  0  0  0  0  0  0  0
    5.3370    0.4755    0.0000 C   0  0  0  0  0  0  0  0  0  0  0  0
    5.5918    0.2219    0.0000 C   0  0  0  0  0  0  0  0  0  0  0  0
    4.5133    0.9511    0.0000 C   0  0  0  0  0  0  0  0  0  0  0  0
    2.8660   -1.9022    0.0000 C   0  0  0  0  0  0  0  0  0  0  0  0
    4.5133   -1.9022    0.0000 C   0  0  0  0  0  0  0  0  0  0  0  0
    2.8660    0.9511    0.0000 C   0  0  0  0  0  0  0  0  0  0  0  0
    3.6897   -2.3777    0.0000 C   0  0  0  0  0  0  0  0  0  0  0  0
    6.8418   -1.6832    0.0000 C   0  0  0  0  0  0  0  0  0  0  0  0
    4.5133    1.9022    0.0000 C   0  0  0  0  0  0  0  0  0  0  0  0
    2.8660    1.9022    0.0000 C   0  0  0  0  0  0  0  0  0  0  0  0
    3.6897    2.3777    0.0000 C   0  0  0  0  0  0  0  0  0  0  0  0
  8  1  1  6
  1 16  1  0
 14  2  1  6
  3 20  1  0
  4  7  1  0
  4 12  1  0
  4 18  1  0
  5  6  1  0
  5  8  1  0
  5  9  1  1
  5 10  1  0
  6  7  1  0
  6 15  1  6
  7 11  1  1
  8 14  1  0
  9 12  1  0
 10 13  2  0
 10 16  1  0
 11 13  1  0
 13 19  1  0
 14 17  1  0
 15 17  2  0
 16 20  2  0
 19 21  2  0
 20 21  1  0
M  END
>  <PUBCHEM_COMPOUND_CID>  (19) 
5288826

>  <PUBCHEM_COMPOUND_CANONICALIZED>  (19) 
1

>  <PUBCHEM_CACTVS_COMPLEXITY>  (19) 
494

>  <PUBCHEM_CACTVS_HBOND_ACCEPTOR>  (19) 
4

>  <PUBCHEM_CACTVS_HBOND_DONOR>  (19) 
2

>  <PUBCHEM_CACTVS_ROTATABLE_BOND>  (19) 
0

>  <PUBCHEM_CACTVS_SUBSKEYS>  (19) 
AAADceB6MAAAAAAAAAAAAAAAAAAAASAAAAA8YIEAAAAWAEjBAAAAHgAACAAADzzhmAYyBoMABgCAAiBCAAACCAAgIAAIiAAOiIgNNiKGsRuGeCOkwBGLuAew8PcPoAABAAAYQADQAAaAADSAAAAAAAAAAA==

>  <PUBCHEM_IUPAC_OPENEYE_NAME>  (19) 
(4R,4aR,7S,7aR,12bS)-3-methyl-2,4,4a,7,7a,13-hexahydro-1H-4,12-methanobenzofuro[3,2-e]isoquinoline-7,9-diol

>  <PUBCHEM_IUPAC_CAS_NAME>  (19) 
(4R,4aR,7S,7aR,12bS)-3-methyl-2,4,4a,7,7a,13-hexahydro-1H-4,12-methanobenzofuro[3,2-e]isoquinoline-7,9-diol

>  <PUBCHEM_IUPAC_NAME_MARKUP>  (19) 
(4<I>R</I>,4<I>a</I><I>R</I>,7<I>S</I>,7<I>a</I><I>R</I>,12<I>b</I><I>S</I>)-3-methyl-2,4,4<I>a</I>,7,7<I>a</I>,13-hexahydro-1<I>H</I>-4,12-methanobenzofuro[3,2-e]isoquinoline-7,9-diol

>  <PUBCHEM_IUPAC_NAME>  (19) 
(4R,4aR,7S,7aR,12bS)-3-methyl-2,4,4a,7,7a,13-hexahydro-1H-4,12-methanobenzofuro[3,2-e]isoquinoline-7,9-diol

>  <PUBCHEM_IUPAC_SYSTEMATIC_NAME>  (19) 
(4R,4aR,7S,7aR,12bS)-3-methyl-2,4,4a,7,7a,13-hexahydro-1H-4,12-methanobenzofuro[3,2-e]isoquinoline-7,9-diol

>  <PUBCHEM_IUPAC_TRADITIONAL_NAME>  (19) 
(4R,4aR,7S,7aR,12bS)-3-methyl-2,4,4a,7,7a,13-hexahydro-1H-4,12-methanobenzofuro[3,2-e]isoquinoline-7,9-diol

>  <PUBCHEM_IUPAC_INCHI>  (19) 
InChI=1S/C17H19NO3/c1-18-7-6-17-10-3-5-13(20)16(17)21-15-12(19)4-2-9(14(15)17)8-11(10)18/h2-5,10-11,13,16,19-20H,6-8H2,1H3/t10-,11+,13-,16-,17-/m0/s1

>  <PUBCHEM_IUPAC_INCHIKEY>  (19) 
BQJCRHHNABKAKU-KBQPJGBKSA-N

>  <PUBCHEM_XLOGP3>  (19) 
0.8

>  <PUBCHEM_EXACT_MASS>  (19) 
285.13649347

>  <PUBCHEM_MOLECULAR_FORMULA>  (19) 
C17H19NO3

>  <PUBCHEM_MOLECULAR_WEIGHT>  (19) 
285.34

>  <PUBCHEM_OPENEYE_CAN_SMILES>  (19) 
CN1CCC23C4C1CC5=C2C(=C(C=C5)O)OC3C(C=C4)O

>  <PUBCHEM_OPENEYE_ISO_SMILES>  (19) 
CN1CC[C@]23[C@@H]4[C@H]1CC5=C2C(=C(C=C5)O)O[C@H]3[C@H](C=C4)O

>  <PUBCHEM_CACTVS_TPSA>  (19) 
52.9

>  <PUBCHEM_MONOISOTOPIC_WEIGHT>  (19) 
285.13649347

>  <PUBCHEM_TOTAL_CHARGE>  (19) 
0

>  <PUBCHEM_HEAVY_ATOM_COUNT>  (19) 
21

>  <PUBCHEM_ATOM_DEF_STEREO_COUNT>  (19) 
5

>  <PUBCHEM_ATOM_UDEF_STEREO_COUNT>  (19) 
0

>  <PUBCHEM_BOND_DEF_STEREO_COUNT>  (19) 
0

>  <PUBCHEM_BOND_UDEF_STEREO_COUNT>  (19) 
0

>  <PUBCHEM_ISOTOPIC_ATOM_COUNT>  (19) 
0

>  <PUBCHEM_COMPONENT_COUNT>  (19) 
1

>  <PUBCHEM_CACTVS_TAUTO_COUNT>  (19) 
2

>  <PUBCHEM_COORDINATE_TYPE>  (19) 
1
5
255

>  <PUBCHEM_BONDANNOTATIONS>  (19) 
10  13  8
10  16  8
13  19  8
16  20  8
19  21  8
14  2  6
20  21  8
5  9  5
6  22  5
7  23  6
8  24  5

$$$$
155903259
     RDKit          2D

 35 37  0  0  1  0  0  0  0  0999 V2000
    3.0000   -2.7770    0.0000 F   0  0  0  0  0  0  0  0  0  0  0  0
    2.0000   -3.7770    0.0000 F   0  0  0  0  0  0  0  0  0  0  0  0
    3.0000   -4.7770    0.0000 F   0  0  0  0  0  0  0  0  0  0  0  0
    6.3006   -0.0769    0.0000 O   0  0  0  0  0  0  0  0  0  0  0  0
    5.5000   -1.1789    0.0000 O   0  0  0  0  0  0  0  0  0  0  0  0
    4.5000   -4.6430    0.0000 O   0  0  0  0  0  0  0  0  0  0  0  0
    6.2389    2.8248    0.0000 O   0  0  0  0  0  0  0  0  0  0  0  0
    7.0000   -2.0449    0.0000 N   0  0  0  0  0  0  0  0  0  0  0  0
    7.9479    0.4583    0.0000 N   0  0  0  0  0  0  0  0  0  0  0  0
    4.5000   -2.9110    0.0000 N   0  0  0  0  0  0  0  0  0  0  0  0
    7.0479    4.4126    0.0000 N   0  0  0  0  0  0  0  0  0  0  0  0
    5.6826    1.8252    0.0000 N   0  0  0  0  0  0  0  0  0  0  0  0
    8.5388   -1.5449    0.0000 C   0  0  0  0  0  0  0  0  0  0  0  0
    9.4054   -2.0449    0.0000 C   0  0  0  0  0  0  0  0  0  0  0  0
    8.5388   -2.5449    0.0000 C   0  0  0  0  0  0  0  0  0  0  0  0
    7.5878   -1.2359    0.0000 C   0  0  0  0  0  0  0  0  0  0  0  0
    7.5878   -2.8540    0.0000 C   0  0  0  0  0  0  0  0  0  0  0  0
    9.9054   -2.9110    0.0000 C   0  0  0  0  0  0  0  0  0  0  0  0
    9.9054   -1.1789    0.0000 C   0  0  0  0  0  0  0  0  0  0  0  0
    7.2788   -0.2849    0.0000 C   0  0  0  0  0  0  0  0  0  0  0  0
    6.0000   -2.0449    0.0000 C   0  0  0  0  0  0  0  0  0  0  0  0
    5.5000   -2.9110    0.0000 C   0  0  0  0  0  0  0  0  0  0  0  0
    6.0000   -3.7770    0.0000 C   0  0  0  0  0  0  0  0  0  0  0  0
    7.6389    1.4093    0.0000 C   0  0  0  0  0  0  0  0  0  0  0  0
    6.5000   -4.6430    0.0000 C   0  0  0  0  0  0  0  0  0  0  0  0
    5.1340   -4.2770    0.0000 C   0  0  0  0  0  0  0  0  0  0  0  0
    6.8660   -3.2770    0.0000 C   0  0  0  0  0  0  0  0  0  0  0  0
    8.3080    2.1525    0.0000 C   0  0  0  0  0  0  0  0  0  0  0  0
    7.9990    3.1035    0.0000 C   0  0  0  0  0  0  0  0  0  0  0  0
    4.0000   -3.7770    0.0000 C   0  0  0  0  0  0  0  0  0  0  0  0
    6.6607    1.6172    0.0000 C   0  0  0  0  0  0  0  0  0  0  0  0
    8.5868    3.9126    0.0000 C   0  0  0  0  0  0  0  0  0  0  0  0
    7.0479    3.4126    0.0000 C   0  0  0  0  0  0  0  0  0  0  0  0
    3.0000   -3.7770    0.0000 C   0  0  0  0  0  0  0  0  0  0  0  0
    7.9990    4.7216    0.0000 C   0  0  0  0  0  0  0  0  0  0  0  0
  1 34  1  0
  2 34  1  0
  3 34  1  0
  4 20  2  0
  5 21  2  0
  6 30  2  0
  7 33  2  0
  8 16  1  0
  8 17  1  0
  8 21  1  0
  9 20  1  0
 24  9  1  0
 22 10  1  6
 10 30  1  0
 11 33  1  0
 11 35  1  0
 12 31  3  0
 13 14  1  1
 13 15  1  0
 13 16  1  0
 14 15  1  0
 14 18  1  0
 14 19  1  0
 15 17  1  1
 16 20  1  6
 21 22  1  0
 22 23  1  0
 23 25  1  0
 23 26  1  0
 23 27  1  0
 24 28  1  6
 24 31  1  0
 29 28  1  1
 29 32  1  0
 29 33  1  0
 30 34  1  0
 32 35  1  0
M  END
>  <PUBCHEM_COMPOUND_CID>  (20) 
155903259

>  <PUBCHEM_COMPOUND_CANONICALIZED>  (20) 
1

>  <PUBCHEM_CACTVS_COMPLEXITY>  (20) 
964

>  <PUBCHEM_CACTVS_HBOND_ACCEPTOR>  (20) 
8

>  <PUBCHEM_CACTVS_HBOND_DONOR>  (20) 
3

>  <PUBCHEM_CACTVS_ROTATABLE_BOND>  (20) 
7

>  <PUBCHEM_CACTVS_SUBSKEYS>  (20) 
AAADcfB7uYAAAAAAAAAAAAAAGAAAAWLAAAAsAAAAAAAAAAAAAAAAHwAQAAAADyjBgBQCAAPAAAAYBAEQEAAAAAAAAAAAAIGIAAAAwBIAgCAUAAAAFgCAAAkcCQAPgAAAAAAAAAAAAAAAAAAAAAAAAAAAAA==

>  <PUBCHEM_IUPAC_OPENEYE_NAME>  (20) 
(1R,2S,5S)-N-[(1S)-1-cyano-2-[(3S)-2-oxopyrrolidin-3-yl]ethyl]-3-[(2S)-3,3-dimethyl-2-[(2,2,2-trifluoroacetyl)amino]butanoyl]-6,6-dimethyl-3-azabicyclo[3.1.0]hexane-2-carboxamide

>  <PUBCHEM_IUPAC_CAS_NAME>  (20) 
(1R,2S,5S)-N-[(1S)-1-cyano-2-[(3S)-2-oxo-3-pyrrolidinyl]ethyl]-3-[(2S)-3,3-dimethyl-1-oxo-2-[(2,2,2-trifluoro-1-oxoethyl)amino]butyl]-6,6-dimethyl-3-azabicyclo[3.1.0]hexane-2-carboxamide

>  <PUBCHEM_IUPAC_NAME_MARKUP>  (20) 
(1<I>R</I>,2<I>S</I>,5<I>S</I>)-<I>N</I>-[(1<I>S</I>)-1-cyano-2-[(3<I>S</I>)-2-oxopyrrolidin-3-yl]ethyl]-3-[(2<I>S</I>)-3,3-dimethyl-2-[(2,2,2-trifluoroacetyl)amino]butanoyl]-6,6-dimethyl-3-azabicyclo[3.1.0]hexane-2-carboxamide

>  <PUBCHEM_IUPAC_NAME>  (20) 
(1R,2S,5S)-N-[(1S)-1-cyano-2-[(3S)-2-oxopyrrolidin-3-yl]ethyl]-3-[(2S)-3,3-dimethyl-2-[(2,2,2-trifluoroacetyl)amino]butanoyl]-6,6-dimethyl-3-azabicyclo[3.1.0]hexane-2-carboxamide

>  <PUBCHEM_IUPAC_SYSTEMATIC_NAME>  (20) 
(1R,2S,5S)-N-[(1S)-1-cyano-2-[(3S)-2-oxidanylidenepyrrolidin-3-yl]ethyl]-3-[(2S)-3,3-dimethyl-2-[2,2,2-tris(fluoranyl)ethanoylamino]butanoyl]-6,6-dimethyl-3-azabicyclo[3.1.0]hexane-2-carboxamide

>  <PUBCHEM_IUPAC_TRADITIONAL_NAME>  (20) 
(1R,2S,5S)-N-[(1S)-1-cyano-2-[(3S)-2-ketopyrrolidin-3-yl]ethyl]-3-[(2S)-3,3-dimethyl-2-[(2,2,2-trifluoroacetyl)amino]butanoyl]-6,6-dimethyl-3-azabicyclo[3.1.0]hexane-2-carboxamide

>  <PUBCHEM_IUPAC_INCHI>  (20) 
InChI=1S/C23H32F3N5O4/c1-21(2,3)16(30-20(35)23(24,25)26)19(34)31-10-13-14(22(13,4)5)15(31)18(33)29-12(9-27)8-11-6-7-28-17(11)32/h11-16H,6-8,10H2,1-5H3,(H,28,32)(H,29,33)(H,30,35)/t11-,12-,13-,14-,15-,16+/m0/s1

>  <PUBCHEM_IUPAC_INCHIKEY>  (20) 
LIENCHBZNNMNKG-OJFNHCPVSA-N

>  <PUBCHEM_XLOGP3_AA>  (20) 
2.2

>  <PUBCHEM_EXACT_MASS>  (20) 
499.24063901

>  <PUBCHEM_MOLECULAR_FORMULA>  (20) 
C23H32F3N5O4

>  <PUBCHEM_MOLECULAR_WEIGHT>  (20) 
499.5

>  <PUBCHEM_OPENEYE_CAN_SMILES>  (20) 
CC1(C2C1C(N(C2)C(=O)C(C(C)(C)C)NC(=O)C(F)(F)F)C(=O)NC(CC3CCNC3=O)C#N)C

>  <PUBCHEM_OPENEYE_ISO_SMILES>  (20) 
CC1([C@@H]2[C@H]1[C@H](N(C2)C(=O)[C@H](C(C)(C)C)NC(=O)C(F)(F)F)C(=O)N[C@@H](C[C@@H]3CCNC3=O)C#N)C

>  <PUBCHEM_CACTVS_TPSA>  (20) 
131

>  <PUBCHEM_MONOISOTOPIC_WEIGHT>  (20) 
499.24063901

>  <PUBCHEM_TOTAL_CHARGE>  (20) 
0

>  <PUBCHEM_HEAVY_ATOM_COUNT>  (20) 
35

>  <PUBCHEM_ATOM_DEF_STEREO_COUNT>  (20) 
6

>  <PUBCHEM_ATOM_UDEF_STEREO_COUNT>  (20) 
0

>  <PUBCHEM_BOND_DEF_STEREO_COUNT>  (20) 
0

>  <PUBCHEM_BOND_UDEF_STEREO_COUNT>  (20) 
0

>  <PUBCHEM_ISOTOPIC_ATOM_COUNT>  (20) 
0

>  <PUBCHEM_COMPONENT_COUNT>  (20) 
1

>  <PUBCHEM_CACTVS_TAUTO_COUNT>  (20) 
-1

>  <PUBCHEM_COORDINATE_TYPE>  (20) 
1
5
255

>  <PUBCHEM_BONDANNOTATIONS>  (20) 
22  10  6
13  36  6
15  37  6
16  20  6
29  28  5
24  9  6

$$$$
5284603
     RDKit          2D

 23 27  0  0  1  0  0  0  0  0999 V2000
    2.2314   -0.4472    0.0000 O   0  0  0  0  0  0  0  0  0  0  0  0
    5.1561   -2.2171    0.0000 O   0  0  0  0  0  0  0  0  0  0  0  0
    2.0000   -2.9021    0.0000 O   0  0  0  0  0  0  0  0  0  0  0  0
    2.0000    1.9022    0.0000 O   0  0  0  0  0  0  0  0  0  0  0  0
    6.1607   -1.4511    0.0000 N   0  0  0  0  0  0  0  0  0  0  0  0
    3.6897   -0.9755    0.0000 C   0  0  0  0  0  0  0  0  0  0  0  0
    4.5133   -1.4511    0.0000 C   0  0  0  0  0  0  0  0  0  0  0  0
    5.3370   -0.9755    0.0000 C   0  0  0  0  0  0  0  0  0  0  0  0
    2.8660   -1.4511    0.0000 C   0  0  0  0  0  0  0  0  0  0  0  0
    4.2392   -0.2781    0.0000 C   0  0  0  0  0  0  0  0  0  0  0  0
    3.6897   -0.0245    0.0000 C   0  0  0  0  0  0  0  0  0  0  0  0
    4.5133   -2.4021    0.0000 C   0  0  0  0  0  0  0  0  0  0  0  0
    5.3370   -0.0245    0.0000 C   0  0  0  0  0  0  0  0  0  0  0  0
    5.5918   -0.2781    0.0000 C   0  0  0  0  0  0  0  0  0  0  0  0
    4.5133    0.4511    0.0000 C   0  0  0  0  0  0  0  0  0  0  0  0
    3.6897   -2.8777    0.0000 C   0  0  0  0  0  0  0  0  0  0  0  0
    2.8660   -2.4021    0.0000 C   0  0  0  0  0  0  0  0  0  0  0  0
    2.8660    0.4511    0.0000 C   0  0  0  0  0  0  0  0  0  0  0  0
    6.8418   -2.1832    0.0000 C   0  0  0  0  0  0  0  0  0  0  0  0
    4.5133    1.4022    0.0000 C   0  0  0  0  0  0  0  0  0  0  0  0
    2.8660    1.4022    0.0000 C   0  0  0  0  0  0  0  0  0  0  0  0
    3.6897    1.8777    0.0000 C   0  0  0  0  0  0  0  0  0  0  0  0
    2.0000    2.9021    0.0000 C   0  0  0  0  0  0  0  0  0  0  0  0
  9  1  1  6
  1 18  1  0
  7  2  1  1
  3 17  2  0
  4 21  1  0
  4 23  1  0
  5  8  1  0
  5 14  1  0
  5 19  1  0
  6  7  1  0
  6  9  1  0
  6 10  1  1
  6 11  1  0
  7  8  1  0
  7 12  1  0
  8 13  1  1
  9 17  1  0
 10 14  1  0
 11 15  2  0
 11 18  1  0
 12 16  1  0
 13 15  1  0
 15 20  1  0
 16 17  1  0
 18 21  2  0
 20 22  2  0
 21 22  1  0
M  END
>  <PUBCHEM_COMPOUND_CID>  (21) 
5284603

>  <PUBCHEM_COMPOUND_CANONICALIZED>  (21) 
1

>  <PUBCHEM_CACTVS_COMPLEXITY>  (21) 
553

>  <PUBCHEM_CACTVS_HBOND_ACCEPTOR>  (21) 
5

>  <PUBCHEM_CACTVS_HBOND_DONOR>  (21) 
1

>  <PUBCHEM_CACTVS_ROTATABLE_BOND>  (21) 
1

>  <PUBCHEM_CACTVS_SUBSKEYS>  (21) 
AAADceB6OAAAAAAAAAAAAAAAAAAAASAAAAA8YMEAAAAWAEjxAAAAHgAACAAADnzhmAYyBoMABgCIAqBSAAICCAAgIAAIiAFOiIgPJjKEsR+GeCKlwBGaqAf6/f/foAABAAAYQADQAAaQADSgAAAAAAAAAA==

>  <PUBCHEM_IUPAC_OPENEYE_NAME>  (21) 
(4R,4aS,7aR,12bS)-4a-hydroxy-9-methoxy-3-methyl-2,4,5,6,7a,13-hexahydro-1H-4,12-methanobenzofuro[3,2-e]isoquinolin-7-one

>  <PUBCHEM_IUPAC_CAS_NAME>  (21) 
(4R,4aS,7aR,12bS)-4a-hydroxy-9-methoxy-3-methyl-2,4,5,6,7a,13-hexahydro-1H-4,12-methanobenzofuro[3,2-e]isoquinolin-7-one

>  <PUBCHEM_IUPAC_NAME_MARKUP>  (21) 
(4<I>R</I>,4<I>a</I><I>S</I>,7<I>a</I><I>R</I>,12<I>b</I><I>S</I>)-4<I>a</I>-hydroxy-9-methoxy-3-methyl-2,4,5,6,7<I>a</I>,13-hexahydro-1<I>H</I>-4,12-methanobenzofuro[3,2-e]isoquinolin-7-one

>  <PUBCHEM_IUPAC_NAME>  (21) 
(4R,4aS,7aR,12bS)-4a-hydroxy-9-methoxy-3-methyl-2,4,5,6,7a,13-hexahydro-1H-4,12-methanobenzofuro[3,2-e]isoquinolin-7-one

>  <PUBCHEM_IUPAC_SYSTEMATIC_NAME>  (21) 
(4R,4aS,7aR,12bS)-9-methoxy-3-methyl-4a-oxidanyl-2,4,5,6,7a,13-hexahydro-1H-4,12-methanobenzofuro[3,2-e]isoquinolin-7-one

>  <PUBCHEM_IUPAC_TRADITIONAL_NAME>  (21) 
(4R,4aS,7aR,12bS)-4a-hydroxy-9-methoxy-3-methyl-2,4,5,6,7a,13-hexahydro-1H-4,12-methanobenzofuro[3,2-e]isoquinolin-7-one

>  <PUBCHEM_IUPAC_INCHI>  (21) 
InChI=1S/C18H21NO4/c1-19-8-7-17-14-10-3-4-12(22-2)15(14)23-16(17)11(20)5-6-18(17,21)13(19)9-10/h3-4,13,16,21H,5-9H2,1-2H3/t13-,16+,17+,18-/m1/s1

>  <PUBCHEM_IUPAC_INCHIKEY>  (21) 
BRUQQQPBMZOVGD-XFKAJCMBSA-N

>  <PUBCHEM_XLOGP3>  (21) 
1.2

>  <PUBCHEM_EXACT_MASS>  (21) 
315.14705815

>  <PUBCHEM_MOLECULAR_FORMULA>  (21) 
C18H21NO4

>  <PUBCHEM_MOLECULAR_WEIGHT>  (21) 
315.4

>  <PUBCHEM_OPENEYE_CAN_SMILES>  (21) 
CN1CCC23C4C(=O)CCC2(C1CC5=C3C(=C(C=C5)OC)O4)O

>  <PUBCHEM_OPENEYE_ISO_SMILES>  (21) 
CN1CC[C@]23[C@@H]4C(=O)CC[C@]2([C@H]1CC5=C3C(=C(C=C5)OC)O4)O

>  <PUBCHEM_CACTVS_TPSA>  (21) 
59

>  <PUBCHEM_MONOISOTOPIC_WEIGHT>  (21) 
315.14705815

>  <PUBCHEM_TOTAL_CHARGE>  (21) 
0

>  <PUBCHEM_HEAVY_ATOM_COUNT>  (21) 
23

>  <PUBCHEM_ATOM_DEF_STEREO_COUNT>  (21) 
4

>  <PUBCHEM_ATOM_UDEF_STEREO_COUNT>  (21) 
0

>  <PUBCHEM_BOND_DEF_STEREO_COUNT>  (21) 
0

>  <PUBCHEM_BOND_UDEF_STEREO_COUNT>  (21) 
0

>  <PUBCHEM_ISOTOPIC_ATOM_COUNT>  (21) 
0

>  <PUBCHEM_COMPONENT_COUNT>  (21) 
1

>  <PUBCHEM_CACTVS_TAUTO_COUNT>  (21) 
6

>  <PUBCHEM_COORDINATE_TYPE>  (21) 
1
5
255

>  <PUBCHEM_BONDANNOTATIONS>  (21) 
11  15  8
11  18  8
15  20  8
18  21  8
7  2  5
20  22  8
21  22  8
6  10  5
8  24  6
9  25  5

$$$$
36314
     RDKit          2D

 62 68  0  0  1  0  0  0  0  0999 V2000
    5.1483   -5.7417    0.0000 O   0  0  0  0  0  0  0  0  0  0  0  0
    6.3178   -4.1322    0.0000 O   0  0  0  0  0  0  0  0  0  0  0  0
    7.0057   -3.2798    0.0000 O   0  0  0  0  0  0  0  0  0  0  0  0
    7.4821   -1.9332    0.0000 O   0  0  0  0  0  0  0  0  0  0  0  0
    2.4962   -3.0851    0.0000 O   0  0  0  0  0  0  0  0  0  0  0  0
    3.5446   -0.3023    0.0000 O   0  0  0  0  0  0  0  0  0  0  0  0
    2.8690   -1.9332    0.0000 O   0  0  0  0  0  0  0  0  0  0  0  0
    7.5875    0.4787    0.0000 O   0  0  0  0  0  0  0  0  0  0  0  0
    7.6038   -5.2924    0.0000 O   0  0  0  0  0  0  0  0  0  0  0  0
    8.4245   -2.2863    0.0000 O   0  0  0  0  0  0  0  0  0  0  0  0
    4.7693    0.9225    0.0000 O   0  0  0  0  0  0  0  0  0  0  0  0
    6.3628    1.7035    0.0000 O   0  0  0  0  0  0  0  0  0  0  0  0
    9.0017    1.8929    0.0000 O   0  0  0  0  0  0  0  0  0  0  0  0
    7.2593    5.0495    0.0000 O   0  0  0  0  0  0  0  0  0  0  0  0
    6.8110    3.3765    0.0000 N   0  0  0  0  0  0  0  0  0  0  0  0
    5.1755   -3.2398    0.0000 C   0  0  0  0  0  0  0  0  0  0  0  0
    5.3274   -4.2703    0.0000 C   0  0  0  0  0  0  0  0  0  0  0  0
    4.2517   -2.8571    0.0000 C   0  0  0  0  0  0  0  0  0  0  0  0
    4.5059   -4.9108    0.0000 C   0  0  0  0  0  0  0  0  0  0  0  0
    6.0994   -2.8571    0.0000 C   0  0  0  0  0  0  0  0  0  0  0  0
    6.4821   -1.9332    0.0000 C   0  0  0  0  0  0  0  0  0  0  0  0
    3.4156   -3.4784    0.0000 C   0  0  0  0  0  0  0  0  0  0  0  0
    3.5436   -4.5122    0.0000 C   0  0  0  0  0  0  0  0  0  0  0  0
    6.0994   -1.0094    0.0000 C   0  0  0  0  0  0  0  0  0  0  0  0
    5.9766   -5.0959    0.0000 C   0  0  0  0  0  0  0  0  0  0  0  0
    3.8690   -1.9332    0.0000 C   0  0  0  0  0  0  0  0  0  0  0  0
    7.1552   -1.1916    0.0000 C   0  0  0  0  0  0  0  0  0  0  0  0
    5.1755   -0.6267    0.0000 C   0  0  0  0  0  0  0  0  0  0  0  0
    3.3278   -2.4744    0.0000 C   0  0  0  0  0  0  0  0  0  0  0  0
    4.2517   -1.0094    0.0000 C   0  0  0  0  0  0  0  0  0  0  0  0
    6.8804   -0.2284    0.0000 C   0  0  0  0  0  0  0  0  0  0  0  0
    5.9172    0.0464    0.0000 C   0  0  0  0  0  0  0  0  0  0  0  0
    6.3971    0.1014    0.0000 C   0  0  0  0  0  0  0  0  0  0  0  0
    7.2102   -0.7117    0.0000 C   0  0  0  0  0  0  0  0  0  0  0  0
    5.6897    1.0202    0.0000 C   0  0  0  0  0  0  0  0  0  0  0  0
    6.6259   -5.0835    0.0000 C   0  0  0  0  0  0  0  0  0  0  0  0
    8.0019   -3.1927    0.0000 C   0  0  0  0  0  0  0  0  0  0  0  0
    5.9560   -5.8260    0.0000 C   0  0  0  0  0  0  0  0  0  0  0  0
    3.8034    0.6637    0.0000 C   0  0  0  0  0  0  0  0  0  0  0  0
    7.3287    1.4446    0.0000 C   0  0  0  0  0  0  0  0  0  0  0  0
    8.5755   -4.0118    0.0000 C   0  0  0  0  0  0  0  0  0  0  0  0
    8.0358    2.1518    0.0000 C   0  0  0  0  0  0  0  0  0  0  0  0
    3.0963    1.3708    0.0000 C   0  0  0  0  0  0  0  0  0  0  0  0
    9.5717   -3.9245    0.0000 C   0  0  0  0  0  0  0  0  0  0  0  0
    8.1530   -4.9181    0.0000 C   0  0  0  0  0  0  0  0  0  0  0  0
    7.7770    3.1177    0.0000 C   0  0  0  0  0  0  0  0  0  0  0  0
   10.1453   -4.7436    0.0000 C   0  0  0  0  0  0  0  0  0  0  0  0
    8.7266   -5.7372    0.0000 C   0  0  0  0  0  0  0  0  0  0  0  0
    9.7228   -5.6500    0.0000 C   0  0  0  0  0  0  0  0  0  0  0  0
    8.4841    3.8248    0.0000 C   0  0  0  0  0  0  0  0  0  0  0  0
    9.4500    3.5660    0.0000 C   0  0  0  0  0  0  0  0  0  0  0  0
    8.2253    4.7907    0.0000 C   0  0  0  0  0  0  0  0  0  0  0  0
    6.5522    4.3424    0.0000 C   0  0  0  0  0  0  0  0  0  0  0  0
   10.1571    4.2731    0.0000 C   0  0  0  0  0  0  0  0  0  0  0  0
    8.9324    5.4978    0.0000 C   0  0  0  0  0  0  0  0  0  0  0  0
    5.5863    4.6012    0.0000 C   0  0  0  0  0  0  0  0  0  0  0  0
    9.8983    5.2390    0.0000 C   0  0  0  0  0  0  0  0  0  0  0  0
    4.8792    3.8941    0.0000 C   0  0  0  0  0  0  0  0  0  0  0  0
    5.3275    5.5672    0.0000 C   0  0  0  0  0  0  0  0  0  0  0  0
    3.9133    4.1530    0.0000 C   0  0  0  0  0  0  0  0  0  0  0  0
    4.3616    5.8260    0.0000 C   0  0  0  0  0  0  0  0  0  0  0  0
    3.6545    5.1189    0.0000 C   0  0  0  0  0  0  0  0  0  0  0  0
  1 19  1  0
  1 25  1  0
 17  2  1  1
  2 36  1  0
 20  3  1  1
  3 37  1  0
 21  4  1  6
 22  5  1  6
 30  6  1  6
  6 39  1  0
  7 26  2  0
 31  8  1  1
  8 40  1  0
  9 36  2  0
 10 37  2  0
 11 39  2  0
 12 40  2  0
 42 13  1  1
 14 53  2  0
 46 15  1  1
 15 53  1  0
 16 17  1  0
 16 18  1  0
 16 20  1  6
 17 19  1  0
 17 25  1  0
 18 22  1  0
 18 26  1  0
 18 29  1  6
 19 23  1  6
 20 21  1  0
 21 24  1  0
 21 27  1  0
 22 23  1  0
 24 28  1  0
 24 33  1  0
 24 34  1  0
 26 30  1  0
 27 31  1  0
 28 30  1  0
 28 32  2  0
 31 32  1  0
 32 35  1  0
 36 38  1  0
 37 41  1  0
 39 43  1  0
 40 42  1  0
 41 44  2  0
 41 45  1  0
 42 46  1  0
 44 47  1  0
 45 48  2  0
 46 50  1  0
 47 49  2  0
 48 49  1  0
 50 51  2  0
 50 52  1  0
 51 54  1  0
 52 55  2  0
 53 56  1  0
 54 57  2  0
 55 57  1  0
 56 58  2  0
 56 59  1  0
 58 60  1  0
 59 61  2  0
 60 62  2  0
 61 62  1  0
M  END
>  <PUBCHEM_COMPOUND_CID>  (22) 
36314

>  <PUBCHEM_COMPOUND_CANONICALIZED>  (22) 
1

>  <PUBCHEM_CACTVS_COMPLEXITY>  (22) 
1790

>  <PUBCHEM_CACTVS_HBOND_ACCEPTOR>  (22) 
14

>  <PUBCHEM_CACTVS_HBOND_DONOR>  (22) 
4

>  <PUBCHEM_CACTVS_ROTATABLE_BOND>  (22) 
14

>  <PUBCHEM_CACTVS_SUBSKEYS>  (22) 
AAADcfB+PAAAAAAAAAAAAAAAAABIAAAAAAAwYMGCAAAaIACBUAAAHgAQCAAAD3zhmAYyCILABgCIAqHSGAKCAAAkAAAIiIFIDMgLNj6AtR2GcQhn9gGbqYfa7PzPgAAAAAAAAABCAAYQADCAAAAAAAAAAA==

>  <PUBCHEM_IUPAC_OPENEYE_NAME>  (22) 
[(1S,2S,3R,4S,7R,9S,10S,12R,15S)-4,12-diacetoxy-15-[(2R,3S)-3-benzamido-2-hydroxy-3-phenyl-propanoyl]oxy-1,9-dihydroxy-10,14,17,17-tetramethyl-11-oxo-6-oxatetracyclo[11.3.1.03,10.04,7]heptadec-13-en-2-yl] benzoate

>  <PUBCHEM_IUPAC_CAS_NAME>  (22) 
benzoic acid [(1S,2S,3R,4S,7R,9S,10S,12R,15S)-4,12-diacetyloxy-15-[(2R,3S)-3-benzamido-2-hydroxy-1-oxo-3-phenylpropoxy]-1,9-dihydroxy-10,14,17,17-tetramethyl-11-oxo-6-oxatetracyclo[11.3.1.03,10.04,7]heptadec-13-en-2-yl] ester

>  <PUBCHEM_IUPAC_NAME_MARKUP>  (22) 
[(1<I>S</I>,2<I>S</I>,3<I>R</I>,4<I>S</I>,7<I>R</I>,9<I>S</I>,10<I>S</I>,12<I>R</I>,15<I>S</I>)-4,12-diacetyloxy-15-[(2<I>R</I>,3<I>S</I>)-3-benzamido-2-hydroxy-3-phenylpropanoyl]oxy-1,9-dihydroxy-10,14,17,17-tetramethyl-11-oxo-6-oxatetracyclo[11.3.1.0<SUP>3,10</SUP>.0<SUP>4,7</SUP>]heptadec-13-en-2-yl] benzoate

>  <PUBCHEM_IUPAC_NAME>  (22) 
[(1S,2S,3R,4S,7R,9S,10S,12R,15S)-4,12-diacetyloxy-15-[(2R,3S)-3-benzamido-2-hydroxy-3-phenylpropanoyl]oxy-1,9-dihydroxy-10,14,17,17-tetramethyl-11-oxo-6-oxatetracyclo[11.3.1.03,10.04,7]heptadec-13-en-2-yl] benzoate

>  <PUBCHEM_IUPAC_SYSTEMATIC_NAME>  (22) 
[(1S,2S,3R,4S,7R,9S,10S,12R,15S)-4,12-diacetyloxy-15-[(2R,3S)-3-benzamido-2-oxidanyl-3-phenyl-propanoyl]oxy-10,14,17,17-tetramethyl-1,9-bis(oxidanyl)-11-oxidanylidene-6-oxatetracyclo[11.3.1.03,10.04,7]heptadec-13-en-2-yl] benzoate

>  <PUBCHEM_IUPAC_TRADITIONAL_NAME>  (22) 
benzoic acid [(1S,2S,3R,4S,7R,9S,10S,12R,15S)-4,12-diacetoxy-15-[(2R,3S)-3-benzamido-2-hydroxy-3-phenyl-propanoyl]oxy-1,9-dihydroxy-11-keto-10,14,17,17-tetramethyl-6-oxatetracyclo[11.3.1.03,10.04,7]heptadec-13-en-2-yl] ester

>  <PUBCHEM_IUPAC_INCHI>  (22) 
InChI=1S/C47H51NO14/c1-25-31(60-43(56)36(52)35(28-16-10-7-11-17-28)48-41(54)29-18-12-8-13-19-29)23-47(57)40(61-42(55)30-20-14-9-15-21-30)38-45(6,32(51)22-33-46(38,24-58-33)62-27(3)50)39(53)37(59-26(2)49)34(25)44(47,4)5/h7-21,31-33,35-38,40,51-52,57H,22-24H2,1-6H3,(H,48,54)/t31-,32-,33+,35-,36+,37+,38-,40-,45+,46-,47+/m0/s1

>  <PUBCHEM_IUPAC_INCHIKEY>  (22) 
RCINICONZNJXQF-MZXODVADSA-N

>  <PUBCHEM_XLOGP3>  (22) 
2.5

>  <PUBCHEM_EXACT_MASS>  (22) 
853.33095530

>  <PUBCHEM_MOLECULAR_FORMULA>  (22) 
C47H51NO14

>  <PUBCHEM_MOLECULAR_WEIGHT>  (22) 
853.9

>  <PUBCHEM_OPENEYE_CAN_SMILES>  (22) 
CC1=C2C(C(=O)C3(C(CC4C(C3C(C(C2(C)C)(CC1OC(=O)C(C(C5=CC=CC=C5)NC(=O)C6=CC=CC=C6)O)O)OC(=O)C7=CC=CC=C7)(CO4)OC(=O)C)O)C)OC(=O)C

>  <PUBCHEM_OPENEYE_ISO_SMILES>  (22) 
CC1=C2[C@H](C(=O)[C@@]3([C@H](C[C@@H]4[C@]([C@H]3[C@@H]([C@@](C2(C)C)(C[C@@H]1OC(=O)[C@@H]([C@H](C5=CC=CC=C5)NC(=O)C6=CC=CC=C6)O)O)OC(=O)C7=CC=CC=C7)(CO4)OC(=O)C)O)C)OC(=O)C

>  <PUBCHEM_CACTVS_TPSA>  (22) 
221

>  <PUBCHEM_MONOISOTOPIC_WEIGHT>  (22) 
853.33095530

>  <PUBCHEM_TOTAL_CHARGE>  (22) 
0

>  <PUBCHEM_HEAVY_ATOM_COUNT>  (22) 
62

>  <PUBCHEM_ATOM_DEF_STEREO_COUNT>  (22) 
11

>  <PUBCHEM_ATOM_UDEF_STEREO_COUNT>  (22) 
0

>  <PUBCHEM_BOND_DEF_STEREO_COUNT>  (22) 
0

>  <PUBCHEM_BOND_UDEF_STEREO_COUNT>  (22) 
0

>  <PUBCHEM_ISOTOPIC_ATOM_COUNT>  (22) 
0

>  <PUBCHEM_COMPONENT_COUNT>  (22) 
1

>  <PUBCHEM_CACTVS_TAUTO_COUNT>  (22) 
-1

>  <PUBCHEM_COORDINATE_TYPE>  (22) 
1
5
255

>  <PUBCHEM_BONDANNOTATIONS>  (22) 
42  13  5
46  15  5
16  63  5
18  29  6
19  64  5
17  2  5
20  3  5
21  4  6
41  44  8
41  45  8
44  47  8
45  48  8
47  49  8
48  49  8
22  5  6
50  51  8
50  52  8
51  54  8
52  55  8
54  57  8
55  57  8
56  58  8
56  59  8
58  60  8
59  61  8
30  6  6
60  62  8
61  62  8
31  8  5

$$$$
6438232
     RDKit          2D

 21 22  0  0  1  0  0  0  0  0999 V2000
    9.6813    0.9981    0.0000 S   0  0  0  0  0  0  0  0  0  0  0  0
    7.0163   -1.0236    0.0000 O   0  0  0  0  0  0  0  0  0  0  0  0
    9.3212   -2.3141    0.0000 O   0  0  0  0  0  0  0  0  0  0  0  0
   10.9685   -1.7789    0.0000 O   0  0  0  0  0  0  0  0  0  0  0  0
    5.7891    0.1796    0.0000 O   0  0  0  0  0  0  0  0  0  0  0  0
    8.7303   -0.3109    0.0000 N   0  0  0  0  0  0  0  0  0  0  0  0
    7.0163    1.4018    0.0000 N   0  0  0  0  0  0  0  0  0  0  0  0
    8.7303    0.6891    0.0000 C   0  0  0  0  0  0  0  0  0  0  0  0
   10.2691    0.1891    0.0000 C   0  0  0  0  0  0  0  0  0  0  0  0
    9.6813   -0.6199    0.0000 C   0  0  0  0  0  0  0  0  0  0  0  0
    7.7220    0.6932    0.0000 C   0  0  0  0  0  0  0  0  0  0  0  0
    7.7220   -0.3151    0.0000 C   0  0  0  0  0  0  0  0  0  0  0  0
   11.0781    0.7769    0.0000 C   0  0  0  0  0  0  0  0  0  0  0  0
   11.0781   -0.3987    0.0000 C   0  0  0  0  0  0  0  0  0  0  0  0
    9.9903   -1.5710    0.0000 C   0  0  0  0  0  0  0  0  0  0  0  0
    6.0499    1.1450    0.0000 C   0  0  0  0  0  0  0  0  0  0  0  0
    5.3442    1.8535    0.0000 C   0  0  0  0  0  0  0  0  0  0  0  0
    4.3778    1.5967    0.0000 C   0  0  0  0  0  0  0  0  0  0  0  0
    3.6721    2.3052    0.0000 C   0  0  0  0  0  0  0  0  0  0  0  0
    2.7056    2.0484    0.0000 C   0  0  0  0  0  0  0  0  0  0  0  0
    2.0000    2.7570    0.0000 C   0  0  0  0  0  0  0  0  0  0  0  0
  8  1  1  1
  1  9  1  0
  2 12  2  0
  3 15  1  0
  4 15  2  0
  5 16  2  0
  6  8  1  0
  6 10  1  0
  6 12  1  0
 11  7  1  1
  7 16  1  0
  8 11  1  0
  9 10  1  0
  9 13  1  0
  9 14  1  0
 10 15  1  6
 11 12  1  0
 16 17  1  0
 17 18  1  0
 18 19  2  0
 19 20  1  0
 20 21  1  0
M  END
>  <PUBCHEM_COMPOUND_CID>  (23) 
6438232

>  <PUBCHEM_COMPOUND_CANONICALIZED>  (23) 
1

>  <PUBCHEM_CACTVS_COMPLEXITY>  (23) 
503

>  <PUBCHEM_CACTVS_HBOND_ACCEPTOR>  (23) 
5

>  <PUBCHEM_CACTVS_HBOND_DONOR>  (23) 
2

>  <PUBCHEM_CACTVS_ROTATABLE_BOND>  (23) 
5

>  <PUBCHEM_CACTVS_SUBSKEYS>  (23) 
AAADceBzOABAAAAAAAAAAAAAAABYAWAAAAAAAAAABYAAAAAAAAAAHgQQCAAADCjFwASCCAPAAgiIACHSGAAAAABgABAICIGIAAgCQBggASAUQAAEFgC4AAIAAAAIAAAAAAAAAAAAAAAAAAAAAAAAAAAAAA==

>  <PUBCHEM_IUPAC_OPENEYE_NAME>  (23) 
(2S,5R,6R)-6-[[(E)-hex-3-enoyl]amino]-3,3-dimethyl-7-oxo-4-thia-1-azabicyclo[3.2.0]heptane-2-carboxylic acid

>  <PUBCHEM_IUPAC_CAS_NAME>  (23) 
(2S,5R,6R)-3,3-dimethyl-7-oxo-6-[[(E)-1-oxohex-3-enyl]amino]-4-thia-1-azabicyclo[3.2.0]heptane-2-carboxylic acid

>  <PUBCHEM_IUPAC_NAME_MARKUP>  (23) 
(2<I>S</I>,5<I>R</I>,6<I>R</I>)-6-[[(<I>E</I>)-hex-3-enoyl]amino]-3,3-dimethyl-7-oxo-4-thia-1-azabicyclo[3.2.0]heptane-2-carboxylic acid

>  <PUBCHEM_IUPAC_NAME>  (23) 
(2S,5R,6R)-6-[[(E)-hex-3-enoyl]amino]-3,3-dimethyl-7-oxo-4-thia-1-azabicyclo[3.2.0]heptane-2-carboxylic acid

>  <PUBCHEM_IUPAC_SYSTEMATIC_NAME>  (23) 
(2S,5R,6R)-6-[[(E)-hex-3-enoyl]amino]-3,3-dimethyl-7-oxidanylidene-4-thia-1-azabicyclo[3.2.0]heptane-2-carboxylic acid

>  <PUBCHEM_IUPAC_TRADITIONAL_NAME>  (23) 
(2S,5R,6R)-6-[[(E)-hex-3-enoyl]amino]-7-keto-3,3-dimethyl-4-thia-1-azabicyclo[3.2.0]heptane-2-carboxylic acid

>  <PUBCHEM_IUPAC_INCHI>  (23) 
InChI=1S/C14H20N2O4S/c1-4-5-6-7-8(17)15-9-11(18)16-10(13(19)20)14(2,3)21-12(9)16/h5-6,9-10,12H,4,7H2,1-3H3,(H,15,17)(H,19,20)/b6-5+/t9-,10+,12-/m1/s1

>  <PUBCHEM_IUPAC_INCHIKEY>  (23) 
QRLCJUNAKLMRGP-ZTWGYATJSA-N

>  <PUBCHEM_XLOGP3>  (23) 
1.9

>  <PUBCHEM_EXACT_MASS>  (23) 
312.11437830

>  <PUBCHEM_MOLECULAR_FORMULA>  (23) 
C14H20N2O4S

>  <PUBCHEM_MOLECULAR_WEIGHT>  (23) 
312.39

>  <PUBCHEM_OPENEYE_CAN_SMILES>  (23) 
CCC=CCC(=O)NC1C2N(C1=O)C(C(S2)(C)C)C(=O)O

>  <PUBCHEM_OPENEYE_ISO_SMILES>  (23) 
CC/C=C/CC(=O)N[C@H]1[C@@H]2N(C1=O)[C@H](C(S2)(C)C)C(=O)O

>  <PUBCHEM_CACTVS_TPSA>  (23) 
112

>  <PUBCHEM_MONOISOTOPIC_WEIGHT>  (23) 
312.11437830

>  <PUBCHEM_TOTAL_CHARGE>  (23) 
0

>  <PUBCHEM_HEAVY_ATOM_COUNT>  (23) 
21

>  <PUBCHEM_ATOM_DEF_STEREO_COUNT>  (23) 
3

>  <PUBCHEM_ATOM_UDEF_STEREO_COUNT>  (23) 
0

>  <PUBCHEM_BOND_DEF_STEREO_COUNT>  (23) 
1

>  <PUBCHEM_BOND_UDEF_STEREO_COUNT>  (23) 
0

>  <PUBCHEM_ISOTOPIC_ATOM_COUNT>  (23) 
0

>  <PUBCHEM_COMPONENT_COUNT>  (23) 
1

>  <PUBCHEM_CACTVS_TAUTO_COUNT>  (23) 
4

>  <PUBCHEM_COORDINATE_TYPE>  (23) 
1
5
255

>  <PUBCHEM_BONDANNOTATIONS>  (23) 
10  15  6
11  7  5
8  22  6

$$$$
135398744
     RDKit          2D

 33 36  0  0  0  0  0  0  0  0999 V2000
    5.4641   -0.5000    0.0000 S   0  0  0  0  0  0  0  0  0  0  0  0
    4.9641    0.3660    0.0000 O   0  0  0  0  0  0  0  0  0  0  0  0
    5.9641   -1.3660    0.0000 O   0  0  0  0  0  0  0  0  0  0  0  0
    8.9282    1.5000    0.0000 O   0  0  0  0  0  0  0  0  0  0  0  0
    9.7942   -3.0000    0.0000 O   0  0  0  0  0  0  0  0  0  0  0  0
    4.5981   -1.0000    0.0000 N   0  0  0  0  0  0  0  0  0  0  0  0
    2.8660   -2.0000    0.0000 N   0  0  0  0  0  0  0  0  0  0  0  0
    8.9282   -1.5000    0.0000 N   0  0  0  0  0  0  0  0  0  0  0  0
   11.6065   -1.8047    0.0000 N   0  0  0  0  0  0  0  0  0  0  0  0
    9.7942    0.0000    0.0000 N   0  0  0  0  0  0  0  0  0  0  0  0
   12.1901   -1.0000    0.0000 N   0  0  0  0  0  0  0  0  0  0  0  0
    3.7320   -0.5000    0.0000 C   0  0  0  0  0  0  0  0  0  0  0  0
    4.5981   -2.0000    0.0000 C   0  0  0  0  0  0  0  0  0  0  0  0
    2.8660   -1.0000    0.0000 C   0  0  0  0  0  0  0  0  0  0  0  0
    3.7320   -2.5000    0.0000 C   0  0  0  0  0  0  0  0  0  0  0  0
    6.3301    0.0000    0.0000 C   0  0  0  0  0  0  0  0  0  0  0  0
    2.0000   -2.5000    0.0000 C   0  0  0  0  0  0  0  0  0  0  0  0
    7.1962   -0.5000    0.0000 C   0  0  0  0  0  0  0  0  0  0  0  0
    8.0622    0.0000    0.0000 C   0  0  0  0  0  0  0  0  0  0  0  0
    6.3301    1.0000    0.0000 C   0  0  0  0  0  0  0  0  0  0  0  0
    8.0622    1.0000    0.0000 C   0  0  0  0  0  0  0  0  0  0  0  0
    8.9282   -0.5000    0.0000 C   0  0  0  0  0  0  0  0  0  0  0  0
    7.1962    1.5000    0.0000 C   0  0  0  0  0  0  0  0  0  0  0  0
   10.6603   -0.5000    0.0000 C   0  0  0  0  0  0  0  0  0  0  0  0
   10.6603   -1.5000    0.0000 C   0  0  0  0  0  0  0  0  0  0  0  0
   11.6065   -0.1953    0.0000 C   0  0  0  0  0  0  0  0  0  0  0  0
   11.9171    0.7553    0.0000 C   0  0  0  0  0  0  0  0  0  0  0  0
    9.7942   -2.0000    0.0000 C   0  0  0  0  0  0  0  0  0  0  0  0
   12.8956    0.9615    0.0000 C   0  0  0  0  0  0  0  0  0  0  0  0
   11.9171   -2.7553    0.0000 C   0  0  0  0  0  0  0  0  0  0  0  0
   13.2063    1.9120    0.0000 C   0  0  0  0  0  0  0  0  0  0  0  0
    8.9282    2.5000    0.0000 C   0  0  0  0  0  0  0  0  0  0  0  0
    9.7942    3.0000    0.0000 C   0  0  0  0  0  0  0  0  0  0  0  0
  1  2  2  0
  1  3  2  0
  1  6  1  0
  1 16  1  0
  4 21  1  0
  4 32  1  0
  5 28  2  0
  6 12  1  0
  6 13  1  0
  7 14  1  0
  7 15  1  0
  7 17  1  0
  8 22  1  0
  8 28  1  0
  9 11  1  0
  9 25  1  0
  9 30  1  0
 10 22  2  0
 10 24  1  0
 11 26  2  0
 12 14  1  0
 13 15  1  0
 16 18  2  0
 16 20  1  0
 18 19  1  0
 19 21  2  0
 19 22  1  0
 20 23  2  0
 21 23  1  0
 24 25  2  0
 24 26  1  0
 25 28  1  0
 26 27  1  0
 27 29  1  0
 29 31  1  0
 32 33  1  0
M  END
>  <PUBCHEM_COMPOUND_CID>  (24) 
135398744

>  <PUBCHEM_COMPOUND_CANONICALIZED>  (24) 
1

>  <PUBCHEM_CACTVS_COMPLEXITY>  (24) 
838

>  <PUBCHEM_CACTVS_HBOND_ACCEPTOR>  (24) 
8

>  <PUBCHEM_CACTVS_HBOND_DONOR>  (24) 
1

>  <PUBCHEM_CACTVS_ROTATABLE_BOND>  (24) 
7

>  <PUBCHEM_CACTVS_SUBSKEYS>  (24) 
AAADceB7uABAAAAAAAAAAAAAAAAAAWAAAAA8QIAAAAAAAEABwAAAHgQYQAAADAzh3gYzx5PIBAKqAydydHDSDBEnsAAZ2Dm+XNgMZrrE/fuWvajmzBHI6UecyCCOAIAAgAAIAAABAAEAABAAAAAAAAAAAA==

>  <PUBCHEM_IUPAC_OPENEYE_NAME>  (24) 
5-[2-ethoxy-5-(4-methylpiperazin-1-yl)sulfonyl-phenyl]-1-methyl-3-propyl-6H-pyrazolo[4,3-d]pyrimidin-7-one

>  <PUBCHEM_IUPAC_CAS_NAME>  (24) 
5-[2-ethoxy-5-[(4-methyl-1-piperazinyl)sulfonyl]phenyl]-1-methyl-3-propyl-6H-pyrazolo[4,3-d]pyrimidin-7-one

>  <PUBCHEM_IUPAC_NAME_MARKUP>  (24) 
5-[2-ethoxy-5-(4-methylpiperazin-1-yl)sulfonylphenyl]-1-methyl-3-propyl-6<I>H</I>-pyrazolo[4,3-d]pyrimidin-7-one

>  <PUBCHEM_IUPAC_NAME>  (24) 
5-[2-ethoxy-5-(4-methylpiperazin-1-yl)sulfonylphenyl]-1-methyl-3-propyl-6H-pyrazolo[4,3-d]pyrimidin-7-one

>  <PUBCHEM_IUPAC_SYSTEMATIC_NAME>  (24) 
5-[2-ethoxy-5-(4-methylpiperazin-1-yl)sulfonyl-phenyl]-1-methyl-3-propyl-6H-pyrazolo[4,3-d]pyrimidin-7-one

>  <PUBCHEM_IUPAC_TRADITIONAL_NAME>  (24) 
5-[2-ethoxy-5-(4-methylpiperazino)sulfonyl-phenyl]-1-methyl-3-propyl-6H-pyrazolo[4,3-d]pyrimidin-7-one

>  <PUBCHEM_IUPAC_INCHI>  (24) 
InChI=1S/C22H30N6O4S/c1-5-7-17-19-20(27(4)25-17)22(29)24-21(23-19)16-14-15(8-9-18(16)32-6-2)33(30,31)28-12-10-26(3)11-13-28/h8-9,14H,5-7,10-13H2,1-4H3,(H,23,24,29)

>  <PUBCHEM_IUPAC_INCHIKEY>  (24) 
BNRNXUUZRGQAQC-UHFFFAOYSA-N

>  <PUBCHEM_XLOGP3_AA>  (24) 
1.5

>  <PUBCHEM_EXACT_MASS>  (24) 
474.20492463

>  <PUBCHEM_MOLECULAR_FORMULA>  (24) 
C22H30N6O4S

>  <PUBCHEM_MOLECULAR_WEIGHT>  (24) 
474.6

>  <PUBCHEM_OPENEYE_CAN_SMILES>  (24) 
CCCC1=NN(C2=C1N=C(NC2=O)C3=C(C=CC(=C3)S(=O)(=O)N4CCN(CC4)C)OCC)C

>  <PUBCHEM_OPENEYE_ISO_SMILES>  (24) 
CCCC1=NN(C2=C1N=C(NC2=O)C3=C(C=CC(=C3)S(=O)(=O)N4CCN(CC4)C)OCC)C

>  <PUBCHEM_CACTVS_TPSA>  (24) 
118

>  <PUBCHEM_MONOISOTOPIC_WEIGHT>  (24) 
474.20492463

>  <PUBCHEM_TOTAL_CHARGE>  (24) 
0

>  <PUBCHEM_HEAVY_ATOM_COUNT>  (24) 
33

>  <PUBCHEM_ATOM_DEF_STEREO_COUNT>  (24) 
0

>  <PUBCHEM_ATOM_UDEF_STEREO_COUNT>  (24) 
0

>  <PUBCHEM_BOND_DEF_STEREO_COUNT>  (24) 
0

>  <PUBCHEM_BOND_UDEF_STEREO_COUNT>  (24) 
0

>  <PUBCHEM_ISOTOPIC_ATOM_COUNT>  (24) 
0

>  <PUBCHEM_COMPONENT_COUNT>  (24) 
1

>  <PUBCHEM_CACTVS_TAUTO_COUNT>  (24) 
-1

>  <PUBCHEM_COORDINATE_TYPE>  (24) 
1
5
255

>  <PUBCHEM_BONDANNOTATIONS>  (24) 
10  22  8
10  24  8
11  26  8
16  18  8
16  20  8
18  19  8
19  21  8
20  23  8
21  23  8
24  25  8
24  26  8
25  28  8
8  22  8
8  28  8
9  11  8
9  25  8

$$$$
16078
     RDKit          2D

 23 25  0  0  1  0  0  0  0  0999 V2000
    8.9942   -2.1016    0.0000 O   0  0  0  0  0  0  0  0  0  0  0  0
    7.2458    0.9330    0.0000 O   0  0  0  0  0  0  0  0  0  0  0  0
    9.8602   -0.6016    0.0000 C   0  0  0  0  0  0  0  0  0  0  0  0
    8.9942   -0.1016    0.0000 C   0  0  0  0  0  0  0  0  0  0  0  0
    9.8602   -1.6016    0.0000 C   0  0  0  0  0  0  0  0  0  0  0  0
   10.7702   -0.0948    0.0000 C   0  0  0  0  0  0  0  0  0  0  0  0
    8.1282   -0.6016    0.0000 C   0  0  0  0  0  0  0  0  0  0  0  0
   10.7783    0.9468    0.0000 C   0  0  0  0  0  0  0  0  0  0  0  0
    8.9781    0.9399    0.0000 C   0  0  0  0  0  0  0  0  0  0  0  0
    9.8762    1.4676    0.0000 C   0  0  0  0  0  0  0  0  0  0  0  0
    8.1282   -1.6016    0.0000 C   0  0  0  0  0  0  0  0  0  0  0  0
   10.3602   -2.4676    0.0000 C   0  0  0  0  0  0  0  0  0  0  0  0
   10.8602   -1.6016    0.0000 C   0  0  0  0  0  0  0  0  0  0  0  0
    7.2342   -0.0670    0.0000 C   0  0  0  0  0  0  0  0  0  0  0  0
    7.2342   -2.1363    0.0000 C   0  0  0  0  0  0  0  0  0  0  0  0
    9.8723    2.4676    0.0000 C   0  0  0  0  0  0  0  0  0  0  0  0
    6.3282   -1.6224    0.0000 C   0  0  0  0  0  0  0  0  0  0  0  0
    6.3282   -0.5808    0.0000 C   0  0  0  0  0  0  0  0  0  0  0  0
    5.4641   -2.1258    0.0000 C   0  0  0  0  0  0  0  0  0  0  0  0
    4.5961   -1.6291    0.0000 C   0  0  0  0  0  0  0  0  0  0  0  0
    3.7320   -2.1324    0.0000 C   0  0  0  0  0  0  0  0  0  0  0  0
    2.8641   -1.6358    0.0000 C   0  0  0  0  0  0  0  0  0  0  0  0
    2.0000   -2.1391    0.0000 C   0  0  0  0  0  0  0  0  0  0  0  0
  1  5  1  0
  1 11  1  0
  2 14  1  0
  3  4  1  0
  3  5  1  0
  3  6  1  1
  4  7  1  0
  4  9  1  6
  5 12  1  0
  5 13  1  0
  6  8  1  0
  7 11  2  0
  7 14  1  0
  8 10  1  0
  9 10  2  0
 10 16  1  0
 11 15  1  0
 14 18  2  0
 15 17  2  0
 17 18  1  0
 17 19  1  0
 19 20  1  0
 20 21  1  0
 21 22  1  0
 22 23  1  0
M  END
>  <PUBCHEM_COMPOUND_CID>  (25) 
16078

>  <PUBCHEM_COMPOUND_CANONICALIZED>  (25) 
1

>  <PUBCHEM_CACTVS_COMPLEXITY>  (25) 
439

>  <PUBCHEM_CACTVS_HBOND_ACCEPTOR>  (25) 
2

>  <PUBCHEM_CACTVS_HBOND_DONOR>  (25) 
1

>  <PUBCHEM_CACTVS_ROTATABLE_BOND>  (25) 
4

>  <PUBCHEM_CACTVS_SUBSKEYS>  (25) 
AAADceB4MAAAAAAAAAAAAAAAAAAAAAAAAAA0QIAAAAAAAACRAAAAGgAACAAADUSAmAAyBoAABgCAAiBCAAACCAAgIAAAiAAGCIgMJyKGMRqCeCClwBUIuAeA4PwOwAABCAAIAACAAAIQABAAAAAAAAAAAA==

>  <PUBCHEM_IUPAC_OPENEYE_NAME>  (25) 
(6aR,10aR)-6,6,9-trimethyl-3-pentyl-6a,7,8,10a-tetrahydrobenzo[c]chromen-1-ol

>  <PUBCHEM_IUPAC_CAS_NAME>  (25) 
(6aR,10aR)-6,6,9-trimethyl-3-pentyl-6a,7,8,10a-tetrahydrobenzo[c][1]benzopyran-1-ol

>  <PUBCHEM_IUPAC_NAME_MARKUP>  (25) 
(6<I>a</I><I>R</I>,10<I>a</I><I>R</I>)-6,6,9-trimethyl-3-pentyl-6<I>a</I>,7,8,10<I>a</I>-tetrahydrobenzo[c]chromen-1-ol

>  <PUBCHEM_IUPAC_NAME>  (25) 
(6aR,10aR)-6,6,9-trimethyl-3-pentyl-6a,7,8,10a-tetrahydrobenzo[c]chromen-1-ol

>  <PUBCHEM_IUPAC_SYSTEMATIC_NAME>  (25) 
(6aR,10aR)-6,6,9-trimethyl-3-pentyl-6a,7,8,10a-tetrahydrobenzo[c]chromen-1-ol

>  <PUBCHEM_IUPAC_TRADITIONAL_NAME>  (25) 
(6aR,10aR)-3-amyl-6,6,9-trimethyl-6a,7,8,10a-tetrahydrobenzo[c]chromen-1-ol

>  <PUBCHEM_IUPAC_INCHI>  (25) 
InChI=1S/C21H30O2/c1-5-6-7-8-15-12-18(22)20-16-11-14(2)9-10-17(16)21(3,4)23-19(20)13-15/h11-13,16-17,22H,5-10H2,1-4H3/t16-,17-/m1/s1

>  <PUBCHEM_IUPAC_INCHIKEY>  (25) 
CYQFCXCEBYINGO-IAGOWNOFSA-N

>  <PUBCHEM_XLOGP3>  (25) 
7

>  <PUBCHEM_EXACT_MASS>  (25) 
314.224580195

>  <PUBCHEM_MOLECULAR_FORMULA>  (25) 
C21H30O2

>  <PUBCHEM_MOLECULAR_WEIGHT>  (25) 
314.5

>  <PUBCHEM_OPENEYE_CAN_SMILES>  (25) 
CCCCCC1=CC(=C2C3C=C(CCC3C(OC2=C1)(C)C)C)O

>  <PUBCHEM_OPENEYE_ISO_SMILES>  (25) 
CCCCCC1=CC(=C2[C@@H]3C=C(CC[C@H]3C(OC2=C1)(C)C)C)O

>  <PUBCHEM_CACTVS_TPSA>  (25) 
29.5

>  <PUBCHEM_MONOISOTOPIC_WEIGHT>  (25) 
314.224580195

>  <PUBCHEM_TOTAL_CHARGE>  (25) 
0

>  <PUBCHEM_HEAVY_ATOM_COUNT>  (25) 
23

>  <PUBCHEM_ATOM_DEF_STEREO_COUNT>  (25) 
2

>  <PUBCHEM_ATOM_UDEF_STEREO_COUNT>  (25) 
0

>  <PUBCHEM_BOND_DEF_STEREO_COUNT>  (25) 
0

>  <PUBCHEM_BOND_UDEF_STEREO_COUNT>  (25) 
0

>  <PUBCHEM_ISOTOPIC_ATOM_COUNT>  (25) 
0

>  <PUBCHEM_COMPONENT_COUNT>  (25) 
1

>  <PUBCHEM_CACTVS_TAUTO_COUNT>  (25) 
9

>  <PUBCHEM_COORDINATE_TYPE>  (25) 
1
5
255

>  <PUBCHEM_BONDANNOTATIONS>  (25) 
11  15  8
14  18  8
15  17  8
17  18  8
3  24  6
4  25  5
7  11  8
7  14  8

$$$$
5429
     RDKit          2D

 13 14  0  0  0  0  0  0  0  0999 V2000
    3.7320    2.0000    0.0000 O   0  0  0  0  0  0  0  0  0  0  0  0
    2.0000   -1.0000    0.0000 O   0  0  0  0  0  0  0  0  0  0  0  0
    5.5443    0.8047    0.0000 N   0  0  0  0  0  0  0  0  0  0  0  0
    3.7320   -1.0000    0.0000 N   0  0  0  0  0  0  0  0  0  0  0  0
    2.8660    0.5000    0.0000 N   0  0  0  0  0  0  0  0  0  0  0  0
    5.5443   -0.8047    0.0000 N   0  0  0  0  0  0  0  0  0  0  0  0
    4.5981    0.5000    0.0000 C   0  0  0  0  0  0  0  0  0  0  0  0
    4.5981   -0.5000    0.0000 C   0  0  0  0  0  0  0  0  0  0  0  0
    3.7320    1.0000    0.0000 C   0  0  0  0  0  0  0  0  0  0  0  0
    2.8660   -0.5000    0.0000 C   0  0  0  0  0  0  0  0  0  0  0  0
    6.1279    0.0000    0.0000 C   0  0  0  0  0  0  0  0  0  0  0  0
    3.7320   -2.0000    0.0000 C   0  0  0  0  0  0  0  0  0  0  0  0
    5.8550    1.7552    0.0000 C   0  0  0  0  0  0  0  0  0  0  0  0
  1  9  2  0
  2 10  2  0
  3  7  1  0
  3 11  1  0
  3 13  1  0
  4  8  1  0
  4 10  1  0
  4 12  1  0
  5  9  1  0
  5 10  1  0
  6  8  1  0
  6 11  2  0
  7  8  2  0
  7  9  1  0
M  END
>  <PUBCHEM_COMPOUND_CID>  (26) 
5429

>  <PUBCHEM_COMPOUND_CANONICALIZED>  (26) 
1

>  <PUBCHEM_CACTVS_COMPLEXITY>  (26) 
267

>  <PUBCHEM_CACTVS_HBOND_ACCEPTOR>  (26) 
3

>  <PUBCHEM_CACTVS_HBOND_DONOR>  (26) 
1

>  <PUBCHEM_CACTVS_ROTATABLE_BOND>  (26) 
0

>  <PUBCHEM_CACTVS_SUBSKEYS>  (26) 
AAADccBjsAAAAAAAAAAAAAAAAAAAAWAAAAAsAAAAAAAAAFgBgAAAHgAQAAAACAgBlgQHsBfMEACoAQdxdACAgC0XEKABUAGoVECASAhASCAUAIgIByJAAGAAAAAAAAAAAAAAAAAAAAAAAAAAAAAAAAAAAA==

>  <PUBCHEM_IUPAC_OPENEYE_NAME>  (26) 
3,7-dimethylpurine-2,6-dione

>  <PUBCHEM_IUPAC_CAS_NAME>  (26) 
3,7-dimethylpurine-2,6-dione

>  <PUBCHEM_IUPAC_NAME_MARKUP>  (26) 
3,7-dimethylpurine-2,6-dione

>  <PUBCHEM_IUPAC_NAME>  (26) 
3,7-dimethylpurine-2,6-dione

>  <PUBCHEM_IUPAC_SYSTEMATIC_NAME>  (26) 
3,7-dimethylpurine-2,6-dione

>  <PUBCHEM_IUPAC_TRADITIONAL_NAME>  (26) 
theobromine

>  <PUBCHEM_IUPAC_INCHI>  (26) 
InChI=1S/C7H8N4O2/c1-10-3-8-5-4(10)6(12)9-7(13)11(5)2/h3H,1-2H3,(H,9,12,13)

>  <PUBCHEM_IUPAC_INCHIKEY>  (26) 
YAPQBXQYLJRXSA-UHFFFAOYSA-N

>  <PUBCHEM_XLOGP3>  (26) 
-0.8

>  <PUBCHEM_EXACT_MASS>  (26) 
180.06472551

>  <PUBCHEM_MOLECULAR_FORMULA>  (26) 
C7H8N4O2

>  <PUBCHEM_MOLECULAR_WEIGHT>  (26) 
180.16

>  <PUBCHEM_OPENEYE_CAN_SMILES>  (26) 
CN1C=NC2=C1C(=O)NC(=O)N2C

>  <PUBCHEM_OPENEYE_ISO_SMILES>  (26) 
CN1C=NC2=C1C(=O)NC(=O)N2C

>  <PUBCHEM_CACTVS_TPSA>  (26) 
67.2

>  <PUBCHEM_MONOISOTOPIC_WEIGHT>  (26) 
180.06472551

>  <PUBCHEM_TOTAL_CHARGE>  (26) 
0

>  <PUBCHEM_HEAVY_ATOM_COUNT>  (26) 
13

>  <PUBCHEM_ATOM_DEF_STEREO_COUNT>  (26) 
0

>  <PUBCHEM_ATOM_UDEF_STEREO_COUNT>  (26) 
0

>  <PUBCHEM_BOND_DEF_STEREO_COUNT>  (26) 
0

>  <PUBCHEM_BOND_UDEF_STEREO_COUNT>  (26) 
0

>  <PUBCHEM_ISOTOPIC_ATOM_COUNT>  (26) 
0

>  <PUBCHEM_COMPONENT_COUNT>  (26) 
1

>  <PUBCHEM_CACTVS_TAUTO_COUNT>  (26) 
-1

>  <PUBCHEM_COORDINATE_TYPE>  (26) 
1
5
255

>  <PUBCHEM_BONDANNOTATIONS>  (26) 
3  11  8
3  7  8
4  10  8
4  8  8
5  10  8
5  9  8
6  11  8
6  8  8
7  8  8
7  9  8

$$$$
135398742
     RDKit          2D

 23 24  0  0  1  0  0  0  0  0999 V2000
    8.9702    1.6086    0.0000 O   0  0  0  0  0  0  0  0  0  0  0  0
    7.3704   -0.4987    0.0000 O   0  0  0  0  0  0  0  0  0  0  0  0
   10.6166    1.0705    0.0000 O   0  0  0  0  0  0  0  0  0  0  0  0
    4.2690   -4.4601    0.0000 O   0  0  0  0  0  0  0  0  0  0  0  0
    6.0812   -1.6554    0.0000 N   0  0  0  0  0  0  0  0  0  0  0  0
   11.2379    2.9715    0.0000 N   0  0  0  0  0  0  0  0  0  0  0  0
    6.0812   -3.2649    0.0000 N   0  0  0  0  0  0  0  0  0  0  0  0
    4.2690   -1.4602    0.0000 N   0  0  0  0  0  0  0  0  0  0  0  0
    3.4030   -2.9602    0.0000 N   0  0  0  0  0  0  0  0  0  0  0  0
    2.5369   -1.4602    0.0000 N   0  0  0  0  0  0  0  0  0  0  0  0
    9.5916    3.5096    0.0000 C   0  0  0  0  0  0  0  0  0  0  0  0
   10.2594    2.7653    0.0000 C   0  0  0  0  0  0  0  0  0  0  0  0
    9.9022    4.4601    0.0000 C   0  0  0  0  0  0  0  0  0  0  0  0
    8.6130    3.3034    0.0000 C   0  0  0  0  0  0  0  0  0  0  0  0
    9.9487    1.8148    0.0000 C   0  0  0  0  0  0  0  0  0  0  0  0
    6.3919   -0.7049    0.0000 C   0  0  0  0  0  0  0  0  0  0  0  0
    5.1350   -1.9602    0.0000 C   0  0  0  0  0  0  0  0  0  0  0  0
    8.6596    0.6581    0.0000 C   0  0  0  0  0  0  0  0  0  0  0  0
    7.6811    0.4518    0.0000 C   0  0  0  0  0  0  0  0  0  0  0  0
    5.1350   -2.9602    0.0000 C   0  0  0  0  0  0  0  0  0  0  0  0
    6.6648   -2.4602    0.0000 C   0  0  0  0  0  0  0  0  0  0  0  0
    4.2690   -3.4602    0.0000 C   0  0  0  0  0  0  0  0  0  0  0  0
    3.4030   -1.9602    0.0000 C   0  0  0  0  0  0  0  0  0  0  0  0
  1 15  1  0
  1 18  1  0
  2 16  1  0
  2 19  1  0
  3 15  2  0
  4 22  2  0
  5 16  1  0
  5 17  1  0
  5 21  1  0
 12  6  1  6
  7 20  1  0
  7 21  2  0
  8 17  1  0
  8 23  2  0
  9 22  1  0
  9 23  1  0
 10 23  1  0
 11 12  1  0
 11 13  1  0
 11 14  1  0
 12 15  1  0
 17 20  2  0
 18 19  1  0
 20 22  1  0
M  END
>  <PUBCHEM_COMPOUND_CID>  (27) 
135398742

>  <PUBCHEM_COMPOUND_CANONICALIZED>  (27) 
1

>  <PUBCHEM_CACTVS_COMPLEXITY>  (27) 
483

>  <PUBCHEM_CACTVS_HBOND_ACCEPTOR>  (27) 
7

>  <PUBCHEM_CACTVS_HBOND_DONOR>  (27) 
3

>  <PUBCHEM_CACTVS_ROTATABLE_BOND>  (27) 
8

>  <PUBCHEM_CACTVS_SUBSKEYS>  (27) 
AAADceBzuAAAAAAAAAAAAAAAAAAAAWAAAAAgAAAAAAAAAEABgAAAHgAQAAAADSjhlgYHuBfMFACoAQfxfACAgC0XEKABUIGoVECDSBhASCAfAIgMEQJCAGAAAAAIAAAAAAAAAAAAAAAAAAAAAAAAAAAAAA==

>  <PUBCHEM_IUPAC_OPENEYE_NAME>  (27) 
2-[(2-amino-6-oxo-1H-purin-9-yl)methoxy]ethyl (2S)-2-amino-3-methyl-butanoate

>  <PUBCHEM_IUPAC_CAS_NAME>  (27) 
(2S)-2-amino-3-methylbutanoic acid 2-[(2-amino-6-oxo-1H-purin-9-yl)methoxy]ethyl ester

>  <PUBCHEM_IUPAC_NAME_MARKUP>  (27) 
2-[(2-amino-6-oxo-1<I>H</I>-purin-9-yl)methoxy]ethyl (2<I>S</I>)-2-amino-3-methylbutanoate

>  <PUBCHEM_IUPAC_NAME>  (27) 
2-[(2-amino-6-oxo-1H-purin-9-yl)methoxy]ethyl (2S)-2-amino-3-methylbutanoate

>  <PUBCHEM_IUPAC_SYSTEMATIC_NAME>  (27) 
2-[(2-azanyl-6-oxidanylidene-1H-purin-9-yl)methoxy]ethyl (2S)-2-azanyl-3-methyl-butanoate

>  <PUBCHEM_IUPAC_TRADITIONAL_NAME>  (27) 
(2S)-2-amino-3-methyl-butyric acid 2-[(2-amino-6-keto-1H-purin-9-yl)methoxy]ethyl ester

>  <PUBCHEM_IUPAC_INCHI>  (27) 
InChI=1S/C13H20N6O4/c1-7(2)8(14)12(21)23-4-3-22-6-19-5-16-9-10(19)17-13(15)18-11(9)20/h5,7-8H,3-4,6,14H2,1-2H3,(H3,15,17,18,20)/t8-/m0/s1

>  <PUBCHEM_IUPAC_INCHIKEY>  (27) 
HDOVUKNUBWVHOX-QMMMGPOBSA-N

>  <PUBCHEM_XLOGP3_AA>  (27) 
-0.9

>  <PUBCHEM_EXACT_MASS>  (27) 
324.15460314

>  <PUBCHEM_MOLECULAR_FORMULA>  (27) 
C13H20N6O4

>  <PUBCHEM_MOLECULAR_WEIGHT>  (27) 
324.34

>  <PUBCHEM_OPENEYE_CAN_SMILES>  (27) 
CC(C)C(C(=O)OCCOCN1C=NC2=C1N=C(NC2=O)N)N

>  <PUBCHEM_OPENEYE_ISO_SMILES>  (27) 
CC(C)[C@@H](C(=O)OCCOCN1C=NC2=C1N=C(NC2=O)N)N

>  <PUBCHEM_CACTVS_TPSA>  (27) 
147

>  <PUBCHEM_MONOISOTOPIC_WEIGHT>  (27) 
324.15460314

>  <PUBCHEM_TOTAL_CHARGE>  (27) 
0

>  <PUBCHEM_HEAVY_ATOM_COUNT>  (27) 
23

>  <PUBCHEM_ATOM_DEF_STEREO_COUNT>  (27) 
1

>  <PUBCHEM_ATOM_UDEF_STEREO_COUNT>  (27) 
0

>  <PUBCHEM_BOND_DEF_STEREO_COUNT>  (27) 
0

>  <PUBCHEM_BOND_UDEF_STEREO_COUNT>  (27) 
0

>  <PUBCHEM_ISOTOPIC_ATOM_COUNT>  (27) 
0

>  <PUBCHEM_COMPONENT_COUNT>  (27) 
1

>  <PUBCHEM_CACTVS_TAUTO_COUNT>  (27) 
6

>  <PUBCHEM_COORDINATE_TYPE>  (27) 
1
5
255

>  <PUBCHEM_BONDANNOTATIONS>  (27) 
17  20  8
20  22  8
5  17  8
5  21  8
12  6  6
7  20  8
7  21  8
8  17  8
8  23  8
9  22  8
9  23  8

$$$$
60854
     RDKit          2D

 28 32  0  0  0  0  0  0  0  0999 V2000
    7.0390   -3.7478    0.0000 Cl  0  0  0  0  0  0  0  0  0  0  0  0
    2.0000    1.5840    0.0000 S   0  0  0  0  0  0  0  0  0  0  0  0
   12.1669   -2.7478    0.0000 O   0  0  0  0  0  0  0  0  0  0  0  0
    6.1730   -0.2479    0.0000 N   0  0  0  0  0  0  0  0  0  0  0  0
    4.4409    0.7521    0.0000 N   0  0  0  0  0  0  0  0  0  0  0  0
    2.6671    0.8470    0.0000 N   0  0  0  0  0  0  0  0  0  0  0  0
   10.5833   -3.5526    0.0000 N   0  0  0  0  0  0  0  0  0  0  0  0
    5.3069   -0.7479    0.0000 C   0  0  0  0  0  0  0  0  0  0  0  0
    6.1730    0.7521    0.0000 C   0  0  0  0  0  0  0  0  0  0  0  0
    4.4409   -0.2479    0.0000 C   0  0  0  0  0  0  0  0  0  0  0  0
    5.3069    1.2522    0.0000 C   0  0  0  0  0  0  0  0  0  0  0  0
    7.0390   -0.7479    0.0000 C   0  0  0  0  0  0  0  0  0  0  0  0
    7.0390   -1.7478    0.0000 C   0  0  0  0  0  0  0  0  0  0  0  0
    3.5749    1.2522    0.0000 C   0  0  0  0  0  0  0  0  0  0  0  0
    7.9050   -2.2478    0.0000 C   0  0  0  0  0  0  0  0  0  0  0  0
    3.4718    2.2409    0.0000 C   0  0  0  0  0  0  0  0  0  0  0  0
    9.6370   -2.2478    0.0000 C   0  0  0  0  0  0  0  0  0  0  0  0
    8.7710   -1.7478    0.0000 C   0  0  0  0  0  0  0  0  0  0  0  0
    9.6370   -3.2478    0.0000 C   0  0  0  0  0  0  0  0  0  0  0  0
    7.9050   -3.2478    0.0000 C   0  0  0  0  0  0  0  0  0  0  0  0
   10.5833   -1.9431    0.0000 C   0  0  0  0  0  0  0  0  0  0  0  0
    2.4933    2.4471    0.0000 C   0  0  0  0  0  0  0  0  0  0  0  0
    8.7710   -3.7478    0.0000 C   0  0  0  0  0  0  0  0  0  0  0  0
   11.1669   -2.7478    0.0000 C   0  0  0  0  0  0  0  0  0  0  0  0
    4.1397    2.9852    0.0000 C   0  0  0  0  0  0  0  0  0  0  0  0
    2.1827    3.3976    0.0000 C   0  0  0  0  0  0  0  0  0  0  0  0
    3.8290    3.9357    0.0000 C   0  0  0  0  0  0  0  0  0  0  0  0
    2.8505    4.1419    0.0000 C   0  0  0  0  0  0  0  0  0  0  0  0
  1 20  1  0
  2  6  1  0
  2 22  1  0
  3 24  2  0
  4  8  1  0
  4  9  1  0
  4 12  1  0
  5 10  1  0
  5 11  1  0
  5 14  1  0
  6 14  2  0
  7 19  1  0
  7 24  1  0
  8 10  1  0
  9 11  1  0
 12 13  1  0
 13 15  1  0
 14 16  1  0
 15 18  2  0
 15 20  1  0
 16 22  2  0
 16 25  1  0
 17 18  1  0
 17 19  2  0
 17 21  1  0
 19 23  1  0
 20 23  2  0
 21 24  1  0
 22 26  1  0
 25 27  2  0
 26 28  2  0
 27 28  1  0
M  END
>  <PUBCHEM_COMPOUND_CID>  (28) 
60854

>  <PUBCHEM_COMPOUND_CANONICALIZED>  (28) 
1

>  <PUBCHEM_CACTVS_COMPLEXITY>  (28) 
573

>  <PUBCHEM_CACTVS_HBOND_ACCEPTOR>  (28) 
5

>  <PUBCHEM_CACTVS_HBOND_DONOR>  (28) 
1

>  <PUBCHEM_CACTVS_ROTATABLE_BOND>  (28) 
4

>  <PUBCHEM_CACTVS_SUBSKEYS>  (28) 
AAADceB7oABEAAAAAAAAAAAAAAAAAWLAAAA8YIAAAAAAAFgB9AAAHgYQQAAADArB2iQx8dPAAACsAidycACDABAhBwBJmDkoZpiIYLLBn5GUIAxglALIyAcciMCODAACAAIHAAAYAAQABA4AAAAAAAAAAA==

>  <PUBCHEM_IUPAC_OPENEYE_NAME>  (28) 
5-[2-[4-(1,2-benzothiazol-3-yl)piperazin-1-yl]ethyl]-6-chloro-indolin-2-one

>  <PUBCHEM_IUPAC_CAS_NAME>  (28) 
5-[2-[4-(1,2-benzothiazol-3-yl)-1-piperazinyl]ethyl]-6-chloro-1,3-dihydroindol-2-one

>  <PUBCHEM_IUPAC_NAME_MARKUP>  (28) 
5-[2-[4-(1,2-benzothiazol-3-yl)piperazin-1-yl]ethyl]-6-chloro-1,3-dihydroindol-2-one

>  <PUBCHEM_IUPAC_NAME>  (28) 
5-[2-[4-(1,2-benzothiazol-3-yl)piperazin-1-yl]ethyl]-6-chloro-1,3-dihydroindol-2-one

>  <PUBCHEM_IUPAC_SYSTEMATIC_NAME>  (28) 
5-[2-[4-(1,2-benzothiazol-3-yl)piperazin-1-yl]ethyl]-6-chloranyl-1,3-dihydroindol-2-one

>  <PUBCHEM_IUPAC_TRADITIONAL_NAME>  (28) 
5-[2-[4-(1,2-benzothiazol-3-yl)piperazino]ethyl]-6-chloro-oxindole

>  <PUBCHEM_IUPAC_INCHI>  (28) 
InChI=1S/C21H21ClN4OS/c22-17-13-18-15(12-20(27)23-18)11-14(17)5-6-25-7-9-26(10-8-25)21-16-3-1-2-4-19(16)28-24-21/h1-4,11,13H,5-10,12H2,(H,23,27)

>  <PUBCHEM_IUPAC_INCHIKEY>  (28) 
MVWVFYHBGMAFLY-UHFFFAOYSA-N

>  <PUBCHEM_XLOGP3_AA>  (28) 
4

>  <PUBCHEM_EXACT_MASS>  (28) 
412.1124602

>  <PUBCHEM_MOLECULAR_FORMULA>  (28) 
C21H21ClN4OS

>  <PUBCHEM_MOLECULAR_WEIGHT>  (28) 
412.9

>  <PUBCHEM_OPENEYE_CAN_SMILES>  (28) 
C1CN(CCN1CCC2=C(C=C3C(=C2)CC(=O)N3)Cl)C4=NSC5=CC=CC=C54

>  <PUBCHEM_OPENEYE_ISO_SMILES>  (28) 
C1CN(CCN1CCC2=C(C=C3C(=C2)CC(=O)N3)Cl)C4=NSC5=CC=CC=C54

>  <PUBCHEM_CACTVS_TPSA>  (28) 
76.7

>  <PUBCHEM_MONOISOTOPIC_WEIGHT>  (28) 
412.1124602

>  <PUBCHEM_TOTAL_CHARGE>  (28) 
0

>  <PUBCHEM_HEAVY_ATOM_COUNT>  (28) 
28

>  <PUBCHEM_ATOM_DEF_STEREO_COUNT>  (28) 
0

>  <PUBCHEM_ATOM_UDEF_STEREO_COUNT>  (28) 
0

>  <PUBCHEM_BOND_DEF_STEREO_COUNT>  (28) 
0

>  <PUBCHEM_BOND_UDEF_STEREO_COUNT>  (28) 
0

>  <PUBCHEM_ISOTOPIC_ATOM_COUNT>  (28) 
0

>  <PUBCHEM_COMPONENT_COUNT>  (28) 
1

>  <PUBCHEM_CACTVS_TAUTO_COUNT>  (28) 
18

>  <PUBCHEM_COORDINATE_TYPE>  (28) 
1
5
255

>  <PUBCHEM_BONDANNOTATIONS>  (28) 
14  16  8
15  18  8
15  20  8
16  22  8
16  25  8
17  18  8
17  19  8
19  23  8
2  22  8
2  6  8
20  23  8
22  26  8
25  27  8
26  28  8
27  28  8
6  14  8

$$$$
