5950
     RDKit          2D

  6  5  0  0  1  0  0  0  0  0999 V2000
    5.1350   -0.2500    0.0000 O   0  0  0  0  0  0  0  0  0  0  0  0
    4.2690    1.2500    0.0000 O   0  0  0  0  0  0  0  0  0  0  0  0
    2.5369    0.2500    0.0000 N   0  0  0  0  0  0  0  0  0  0  0  0
    3.4030   -0.2500    0.0000 C   0  0  0  0  0  0  0  0  0  0  0  0
    3.4030   -1.2500    0.0000 C   0  0  0  0  0  0  0  0  0  0  0  0
    4.2690    0.2500    0.0000 C   0  0  0  0  0  0  0  0  0  0  0  0
  1  6  1  0
  2  6  2  0
  4  3  1  0
  4  5  1  6
  4  6  1  0
M  END
>  <PUBCHEM_COMPOUND_CID>  (1) 
5950

>  <PUBCHEM_COMPOUND_CANONICALIZED>  (1) 
1

>  <PUBCHEM_CACTVS_COMPLEXITY>  (1) 
61.8

>  <PUBCHEM_CACTVS_HBOND_ACCEPTOR>  (1) 
3

>  <PUBCHEM_CACTVS_HBOND_DONOR>  (1) 
2

>  <PUBCHEM_CACTVS_ROTATABLE_BOND>  (1) 
1

>  <PUBCHEM_CACTVS_SUBSKEYS>  (1) 
AAADcYBCMAAAAAAAAAAAAAAAAAAAAAAAAAAAAAAAAAAAAAAAAAAAHgAQCAAACCjBgAQCCABAAgAIAACQCAAAAAAAAAAAAIGAAAACAAAAAAAAQAAAEAAAAAAAAAAAAAAAAAAAAAAAAAAAAAAAAAAAAAAAAA==

>  <PUBCHEM_IUPAC_OPENEYE_NAME>  (1) 
(2S)-2-aminopropanoic acid

>  <PUBCHEM_IUPAC_CAS_NAME>  (1) 
(2S)-2-aminopropanoic acid

>  <PUBCHEM_IUPAC_NAME_MARKUP>  (1) 
(2<I>S</I>)-2-aminopropanoic acid

>  <PUBCHEM_IUPAC_NAME>  (1) 
(2S)-2-aminopropanoic acid

>  <PUBCHEM_IUPAC_SYSTEMATIC_NAME>  (1) 
(2S)-2-azanylpropanoic acid

>  <PUBCHEM_IUPAC_TRADITIONAL_NAME>  (1) 
(2S)-2-aminopropionic acid

>  <PUBCHEM_IUPAC_INCHI>  (1) 
InChI=1S/C3H7NO2/c1-2(4)3(5)6/h2H,4H2,1H3,(H,5,6)/t2-/m0/s1

>  <PUBCHEM_IUPAC_INCHIKEY>  (1) 
QNAYBMKLOCPYGJ-REOHCLBHSA-N

>  <PUBCHEM_XLOGP3>  (1) 
-3

>  <PUBCHEM_EXACT_MASS>  (1) 
89.047678466

>  <PUBCHEM_MOLECULAR_FORMULA>  (1) 
C3H7NO2

>  <PUBCHEM_MOLECULAR_WEIGHT>  (1) 
89.09

>  <PUBCHEM_OPENEYE_CAN_SMILES>  (1) 
CC(C(=O)O)N

>  <PUBCHEM_OPENEYE_ISO_SMILES>  (1) 
C[C@@H](C(=O)O)N

>  <PUBCHEM_CACTVS_TPSA>  (1) 
63.3

>  <PUBCHEM_MONOISOTOPIC_WEIGHT>  (1) 
89.047678466

>  <PUBCHEM_TOTAL_CHARGE>  (1) 
0

>  <PUBCHEM_HEAVY_ATOM_COUNT>  (1) 
6

>  <PUBCHEM_ATOM_DEF_STEREO_COUNT>  (1) 
1

>  <PUBCHEM_ATOM_UDEF_STEREO_COUNT>  (1) 
0

>  <PUBCHEM_BOND_DEF_STEREO_COUNT>  (1) 
0

>  <PUBCHEM_BOND_UDEF_STEREO_COUNT>  (1) 
0

>  <PUBCHEM_ISOTOPIC_ATOM_COUNT>  (1) 
0

>  <PUBCHEM_COMPONENT_COUNT>  (1) 
1

>  <PUBCHEM_CACTVS_TAUTO_COUNT>  (1) 
2

>  <PUBCHEM_COORDINATE_TYPE>  (1) 
1
5
255

>  <PUBCHEM_BONDANNOTATIONS>  (1) 
4  3  6

$$$$
6322
     RDKit          2D

 12 11  0  0  1  0  0  0  0  0999 V2000
    6.8671    1.8100    0.0000 O   0  0  0  0  0  0  0  0  0  0  0  0
    6.0010    3.3100    0.0000 O   0  0  0  0  0  0  0  0  0  0  0  0
    4.2690    2.3100    0.0000 N   0  0  0  0  0  0  0  0  0  0  0  0
    3.4030   -1.1900    0.0000 N   0  0  0  0  0  0  0  0  0  0  0  0
    2.5369   -2.6900    0.0000 N   0  0  0  0  0  0  0  0  0  0  0  0
    4.2690   -2.6900    0.0000 N   0  0  0  0  0  0  0  0  0  0  0  0
    5.1350    0.8100    0.0000 C   0  0  0  0  0  0  0  0  0  0  0  0
    4.2690    0.3100    0.0000 C   0  0  0  0  0  0  0  0  0  0  0  0
    5.1350    1.8100    0.0000 C   0  0  0  0  0  0  0  0  0  0  0  0
    4.2690   -0.6900    0.0000 C   0  0  0  0  0  0  0  0  0  0  0  0
    6.0010    2.3100    0.0000 C   0  0  0  0  0  0  0  0  0  0  0  0
    3.4030   -2.1900    0.0000 C   0  0  0  0  0  0  0  0  0  0  0  0
  1 11  1  0
  2 11  2  0
  9  3  1  6
  4 10  1  0
  4 12  2  0
  5 12  1  0
  6 12  1  0
  7  8  1  0
  7  9  1  0
  8 10  1  0
  9 11  1  0
M  END
>  <PUBCHEM_COMPOUND_CID>  (2) 
6322

>  <PUBCHEM_COMPOUND_CANONICALIZED>  (2) 
1

>  <PUBCHEM_CACTVS_COMPLEXITY>  (2) 
176

>  <PUBCHEM_CACTVS_HBOND_ACCEPTOR>  (2) 
4

>  <PUBCHEM_CACTVS_HBOND_DONOR>  (2) 
4

>  <PUBCHEM_CACTVS_ROTATABLE_BOND>  (2) 
5

>  <PUBCHEM_CACTVS_SUBSKEYS>  (2) 
AAADccBjsAAAAAAAAAAAAAAAAAAAAAAAAAAAAAAAAAAAAAAAAAAAHgAQCAAACCjBgAQBCAJAAgAoAACQLAAAAAEAAAAAAIGAAAACABIAgAAAQAAEEAAAAACYEQAAAAAAAAAAAAAAAAAAAAAAAAAAAAAAAA==

>  <PUBCHEM_IUPAC_OPENEYE_NAME>  (2) 
(2S)-2-amino-5-guanidino-pentanoic acid

>  <PUBCHEM_IUPAC_CAS_NAME>  (2) 
(2S)-2-amino-5-(diaminomethylideneamino)pentanoic acid

>  <PUBCHEM_IUPAC_NAME_MARKUP>  (2) 
(2<I>S</I>)-2-amino-5-(diaminomethylideneamino)pentanoic acid

>  <PUBCHEM_IUPAC_NAME>  (2) 
(2S)-2-amino-5-(diaminomethylideneamino)pentanoic acid

>  <PUBCHEM_IUPAC_SYSTEMATIC_NAME>  (2) 
(2S)-2-azanyl-5-[bis(azanyl)methylideneamino]pentanoic acid

>  <PUBCHEM_IUPAC_TRADITIONAL_NAME>  (2) 
(2S)-2-amino-5-guanidino-valeric acid

>  <PUBCHEM_IUPAC_INCHI>  (2) 
InChI=1S/C6H14N4O2/c7-4(5(11)12)2-1-3-10-6(8)9/h4H,1-3,7H2,(H,11,12)(H4,8,9,10)/t4-/m0/s1

>  <PUBCHEM_IUPAC_INCHIKEY>  (2) 
ODKSFYDXXFIFQN-BYPYZUCNSA-N

>  <PUBCHEM_XLOGP3>  (2) 
-4.2

>  <PUBCHEM_EXACT_MASS>  (2) 
174.11167570

>  <PUBCHEM_MOLECULAR_FORMULA>  (2) 
C6H14N4O2

>  <PUBCHEM_MOLECULAR_WEIGHT>  (2) 
174.20

>  <PUBCHEM_OPENEYE_CAN_SMILES>  (2) 
C(CC(C(=O)O)N)CN=C(N)N

>  <PUBCHEM_OPENEYE_ISO_SMILES>  (2) 
C(C[C@@H](C(=O)O)N)CN=C(N)N

>  <PUBCHEM_CACTVS_TPSA>  (2) 
128

>  <PUBCHEM_MONOISOTOPIC_WEIGHT>  (2) 
174.11167570

>  <PUBCHEM_TOTAL_CHARGE>  (2) 
0

>  <PUBCHEM_HEAVY_ATOM_COUNT>  (2) 
12

>  <PUBCHEM_ATOM_DEF_STEREO_COUNT>  (2) 
1

>  <PUBCHEM_ATOM_UDEF_STEREO_COUNT>  (2) 
0

>  <PUBCHEM_BOND_DEF_STEREO_COUNT>  (2) 
0

>  <PUBCHEM_BOND_UDEF_STEREO_COUNT>  (2) 
0

>  <PUBCHEM_ISOTOPIC_ATOM_COUNT>  (2) 
0

>  <PUBCHEM_COMPONENT_COUNT>  (2) 
1

>  <PUBCHEM_CACTVS_TAUTO_COUNT>  (2) 
6

>  <PUBCHEM_COORDINATE_TYPE>  (2) 
1
5
255

>  <PUBCHEM_BONDANNOTATIONS>  (2) 
9  3  6

$$$$
6267
     RDKit          2D

  9  8  0  0  1  0  0  0  0  0999 V2000
    6.8671   -0.0950    0.0000 O   0  0  0  0  0  0  0  0  0  0  0  0
    6.0010    1.4050    0.0000 O   0  0  0  0  0  0  0  0  0  0  0  0
    3.4030   -1.0950    0.0000 O   0  0  0  0  0  0  0  0  0  0  0  0
    5.1350   -1.0950    0.0000 N   0  0  0  0  0  0  0  0  0  0  0  0
    2.5369    0.4050    0.0000 N   0  0  0  0  0  0  0  0  0  0  0  0
    5.1350   -0.0950    0.0000 C   0  0  0  0  0  0  0  0  0  0  0  0
    4.2690    0.4050    0.0000 C   0  0  0  0  0  0  0  0  0  0  0  0
    6.0010    0.4050    0.0000 C   0  0  0  0  0  0  0  0  0  0  0  0
    3.4030   -0.0950    0.0000 C   0  0  0  0  0  0  0  0  0  0  0  0
  1  8  1  0
  2  8  2  0
  3  9  2  0
  6  4  1  1
  5  9  1  0
  6  7  1  0
  6  8  1  0
  7  9  1  0
M  END
>  <PUBCHEM_COMPOUND_CID>  (3) 
6267

>  <PUBCHEM_COMPOUND_CANONICALIZED>  (3) 
1

>  <PUBCHEM_CACTVS_COMPLEXITY>  (3) 
134

>  <PUBCHEM_CACTVS_HBOND_ACCEPTOR>  (3) 
4

>  <PUBCHEM_CACTVS_HBOND_DONOR>  (3) 
3

>  <PUBCHEM_CACTVS_ROTATABLE_BOND>  (3) 
3

>  <PUBCHEM_CACTVS_SUBSKEYS>  (3) 
AAADccBjMAAAAAAAAAAAAAAAAAAAAAAAAAAAAAAAAAAAAAAAAAAAHgAQCAAACCjBgAQACABAAgAIAAGQGAAAAAAAAAAAAIGAAAACABgAwAAAQAAEEAAAAAAnAAAAAAAAAAAAAAAAAAAAAAAAAAAAAAAAAA==

>  <PUBCHEM_IUPAC_OPENEYE_NAME>  (3) 
(2S)-2,4-diamino-4-oxo-butanoic acid

>  <PUBCHEM_IUPAC_CAS_NAME>  (3) 
(2S)-2,4-diamino-4-oxobutanoic acid

>  <PUBCHEM_IUPAC_NAME_MARKUP>  (3) 
(2<I>S</I>)-2,4-diamino-4-oxobutanoic acid

>  <PUBCHEM_IUPAC_NAME>  (3) 
(2S)-2,4-diamino-4-oxobutanoic acid

>  <PUBCHEM_IUPAC_SYSTEMATIC_NAME>  (3) 
(2S)-2,4-bis(azanyl)-4-oxidanylidene-butanoic acid

>  <PUBCHEM_IUPAC_TRADITIONAL_NAME>  (3) 
(2S)-2,4-diamino-4-keto-butyric acid

>  <PUBCHEM_IUPAC_INCHI>  (3) 
InChI=1S/C4H8N2O3/c5-2(4(8)9)1-3(6)7/h2H,1,5H2,(H2,6,7)(H,8,9)/t2-/m0/s1

>  <PUBCHEM_IUPAC_INCHIKEY>  (3) 
DCXYFEDJOCDNAF-REOHCLBHSA-N

>  <PUBCHEM_XLOGP3>  (3) 
-3.4

>  <PUBCHEM_EXACT_MASS>  (3) 
132.05349212

>  <PUBCHEM_MOLECULAR_FORMULA>  (3) 
C4H8N2O3

>  <PUBCHEM_MOLECULAR_WEIGHT>  (3) 
132.12

>  <PUBCHEM_OPENEYE_CAN_SMILES>  (3) 
C(C(C(=O)O)N)C(=O)N

>  <PUBCHEM_OPENEYE_ISO_SMILES>  (3) 
C([C@@H](C(=O)O)N)C(=O)N

>  <PUBCHEM_CACTVS_TPSA>  (3) 
106

>  <PUBCHEM_MONOISOTOPIC_WEIGHT>  (3) 
132.05349212

>  <PUBCHEM_TOTAL_CHARGE>  (3) 
0

>  <PUBCHEM_HEAVY_ATOM_COUNT>  (3) 
9

>  <PUBCHEM_ATOM_DEF_STEREO_COUNT>  (3) 
1

>  <PUBCHEM_ATOM_UDEF_STEREO_COUNT>  (3) 
0

>  <PUBCHEM_BOND_DEF_STEREO_COUNT>  (3) 
0

>  <PUBCHEM_BOND_UDEF_STEREO_COUNT>  (3) 
0

>  <PUBCHEM_ISOTOPIC_ATOM_COUNT>  (3) 
0

>  <PUBCHEM_COMPONENT_COUNT>  (3) 
1

>  <PUBCHEM_CACTVS_TAUTO_COUNT>  (3) 
3

>  <PUBCHEM_COORDINATE_TYPE>  (3) 
1
5
255

>  <PUBCHEM_BONDANNOTATIONS>  (3) 
6  4  5

$$$$
5960
     RDKit          2D

  9  8  0  0  1  0  0  0  0  0999 V2000
    6.8671   -0.0950    0.0000 O   0  0  0  0  0  0  0  0  0  0  0  0
    2.5369    0.4050    0.0000 O   0  0  0  0  0  0  0  0  0  0  0  0
    6.0010    1.4050    0.0000 O   0  0  0  0  0  0  0  0  0  0  0  0
    3.4030   -1.0950    0.0000 O   0  0  0  0  0  0  0  0  0  0  0  0
    5.1350   -1.0950    0.0000 N   0  0  0  0  0  0  0  0  0  0  0  0
    5.1350   -0.0950    0.0000 C   0  0  0  0  0  0  0  0  0  0  0  0
    4.2690    0.4050    0.0000 C   0  0  0  0  0  0  0  0  0  0  0  0
    6.0010    0.4050    0.0000 C   0  0  0  0  0  0  0  0  0  0  0  0
    3.4030   -0.0950    0.0000 C   0  0  0  0  0  0  0  0  0  0  0  0
  1  8  1  0
  2  9  1  0
  3  8  2  0
  4  9  2  0
  6  5  1  1
  6  7  1  0
  6  8  1  0
  7  9  1  0
M  END
>  <PUBCHEM_COMPOUND_CID>  (4) 
5960

>  <PUBCHEM_COMPOUND_CANONICALIZED>  (4) 
1

>  <PUBCHEM_CACTVS_COMPLEXITY>  (4) 
133

>  <PUBCHEM_CACTVS_HBOND_ACCEPTOR>  (4) 
5

>  <PUBCHEM_CACTVS_HBOND_DONOR>  (4) 
3

>  <PUBCHEM_CACTVS_ROTATABLE_BOND>  (4) 
3

>  <PUBCHEM_CACTVS_SUBSKEYS>  (4) 
AAADcYBiOAAAAAAAAAAAAAAAAAAAAAAAAAAAAAAAAAAAAAAAAAAAHgAQCAAACCjBgAQACABAAgAIAACQCAAAAAAAAAAAAIGAAAACABgAAAAAQAAGEAAAAABDAAAAAAAAAAAAAAAAAAAAAAAAAAAAAAAAAA==

>  <PUBCHEM_IUPAC_OPENEYE_NAME>  (4) 
(2S)-2-aminobutanedioic acid

>  <PUBCHEM_IUPAC_CAS_NAME>  (4) 
(2S)-2-aminobutanedioic acid

>  <PUBCHEM_IUPAC_NAME_MARKUP>  (4) 
(2<I>S</I>)-2-aminobutanedioic acid

>  <PUBCHEM_IUPAC_NAME>  (4) 
(2S)-2-aminobutanedioic acid

>  <PUBCHEM_IUPAC_SYSTEMATIC_NAME>  (4) 
(2S)-2-azanylbutanedioic acid

>  <PUBCHEM_IUPAC_TRADITIONAL_NAME>  (4) 
(2S)-2-aminosuccinic acid

>  <PUBCHEM_IUPAC_INCHI>  (4) 
InChI=1S/C4H7NO4/c5-2(4(8)9)1-3(6)7/h2H,1,5H2,(H,6,7)(H,8,9)/t2-/m0/s1

>  <PUBCHEM_IUPAC_INCHIKEY>  (4) 
CKLJMWTZIZZHCS-REOHCLBHSA-N

>  <PUBCHEM_XLOGP3>  (4) 
-2.8

>  <PUBCHEM_EXACT_MASS>  (4) 
133.03750770

>  <PUBCHEM_MOLECULAR_FORMULA>  (4) 
C4H7NO4

>  <PUBCHEM_MOLECULAR_WEIGHT>  (4) 
133.10

>  <PUBCHEM_OPENEYE_CAN_SMILES>  (4) 
C(C(C(=O)O)N)C(=O)O

>  <PUBCHEM_OPENEYE_ISO_SMILES>  (4) 
C([C@@H](C(=O)O)N)C(=O)O

>  <PUBCHEM_CACTVS_TPSA>  (4) 
101

>  <PUBCHEM_MONOISOTOPIC_WEIGHT>  (4) 
133.03750770

>  <PUBCHEM_TOTAL_CHARGE>  (4) 
0

>  <PUBCHEM_HEAVY_ATOM_COUNT>  (4) 
9

>  <PUBCHEM_ATOM_DEF_STEREO_COUNT>  (4) 
1

>  <PUBCHEM_ATOM_UDEF_STEREO_COUNT>  (4) 
0

>  <PUBCHEM_BOND_DEF_STEREO_COUNT>  (4) 
0

>  <PUBCHEM_BOND_UDEF_STEREO_COUNT>  (4) 
0

>  <PUBCHEM_ISOTOPIC_ATOM_COUNT>  (4) 
0

>  <PUBCHEM_COMPONENT_COUNT>  (4) 
1

>  <PUBCHEM_CACTVS_TAUTO_COUNT>  (4) 
1

>  <PUBCHEM_COORDINATE_TYPE>  (4) 
1
5
255

>  <PUBCHEM_BONDANNOTATIONS>  (4) 
6  5  5

$$$$
5862
     RDKit          2D

  7  6  0  0  1  0  0  0  0  0999 V2000
    2.5369   -1.1900    0.0000 S   0  0  0  0  0  0  0  0  0  0  0  0
    5.1350    0.3100    0.0000 O   0  0  0  0  0  0  0  0  0  0  0  0
    4.2690    1.8100    0.0000 O   0  0  0  0  0  0  0  0  0  0  0  0
    2.5369    0.8100    0.0000 N   0  0  0  0  0  0  0  0  0  0  0  0
    3.4030    0.3100    0.0000 C   0  0  0  0  0  0  0  0  0  0  0  0
    3.4030   -0.6900    0.0000 C   0  0  0  0  0  0  0  0  0  0  0  0
    4.2690    0.8100    0.0000 C   0  0  0  0  0  0  0  0  0  0  0  0
  1  6  1  0
  2  7  1  0
  3  7  2  0
  5  4  1  6
  5  6  1  0
  5  7  1  0
M  END
>  <PUBCHEM_COMPOUND_CID>  (5) 
5862

>  <PUBCHEM_COMPOUND_CANONICALIZED>  (5) 
1

>  <PUBCHEM_CACTVS_COMPLEXITY>  (5) 
75.3

>  <PUBCHEM_CACTVS_HBOND_ACCEPTOR>  (5) 
4

>  <PUBCHEM_CACTVS_HBOND_DONOR>  (5) 
3

>  <PUBCHEM_CACTVS_ROTATABLE_BOND>  (5) 
2

>  <PUBCHEM_CACTVS_SUBSKEYS>  (5) 
AAADcYBCMABAAAAAAAAAAAAAAAAAAAAAAAAAAAAAAAAAAAAAAAAAHgQQCAAACCjFwASACABAAgQIAACQCAAAAAAAAAAAAIGAAAACAAAAAAAAQAAAEAAAAAAAAAAAAAAAAAAAAAAAAAAAAAAAAAAAAAAAAA==

>  <PUBCHEM_IUPAC_OPENEYE_NAME>  (5) 
(2R)-2-amino-3-sulfanyl-propanoic acid

>  <PUBCHEM_IUPAC_CAS_NAME>  (5) 
(2R)-2-amino-3-mercaptopropanoic acid

>  <PUBCHEM_IUPAC_NAME_MARKUP>  (5) 
(2<I>R</I>)-2-amino-3-sulfanylpropanoic acid

>  <PUBCHEM_IUPAC_NAME>  (5) 
(2R)-2-amino-3-sulfanylpropanoic acid

>  <PUBCHEM_IUPAC_SYSTEMATIC_NAME>  (5) 
(2R)-2-azanyl-3-sulfanyl-propanoic acid

>  <PUBCHEM_IUPAC_TRADITIONAL_NAME>  (5) 
(2R)-2-amino-3-mercapto-propionic acid

>  <PUBCHEM_IUPAC_INCHI>  (5) 
InChI=1S/C3H7NO2S/c4-2(1-7)3(5)6/h2,7H,1,4H2,(H,5,6)/t2-/m0/s1

>  <PUBCHEM_IUPAC_INCHIKEY>  (5) 
XUJNEKJLAYXESH-REOHCLBHSA-N

>  <PUBCHEM_XLOGP3>  (5) 
-2.5

>  <PUBCHEM_EXACT_MASS>  (5) 
121.01974964

>  <PUBCHEM_MOLECULAR_FORMULA>  (5) 
C3H7NO2S

>  <PUBCHEM_MOLECULAR_WEIGHT>  (5) 
121.16

>  <PUBCHEM_OPENEYE_CAN_SMILES>  (5) 
C(C(C(=O)O)N)S

>  <PUBCHEM_OPENEYE_ISO_SMILES>  (5) 
C([C@@H](C(=O)O)N)S

>  <PUBCHEM_CACTVS_TPSA>  (5) 
64.3

>  <PUBCHEM_MONOISOTOPIC_WEIGHT>  (5) 
121.01974964

>  <PUBCHEM_TOTAL_CHARGE>  (5) 
0

>  <PUBCHEM_HEAVY_ATOM_COUNT>  (5) 
7

>  <PUBCHEM_ATOM_DEF_STEREO_COUNT>  (5) 
1

>  <PUBCHEM_ATOM_UDEF_STEREO_COUNT>  (5) 
0

>  <PUBCHEM_BOND_DEF_STEREO_COUNT>  (5) 
0

>  <PUBCHEM_BOND_UDEF_STEREO_COUNT>  (5) 
0

>  <PUBCHEM_ISOTOPIC_ATOM_COUNT>  (5) 
0

>  <PUBCHEM_COMPONENT_COUNT>  (5) 
1

>  <PUBCHEM_CACTVS_TAUTO_COUNT>  (5) 
1

>  <PUBCHEM_COORDINATE_TYPE>  (5) 
1
5
255

>  <PUBCHEM_BONDANNOTATIONS>  (5) 
5  4  6

$$$$
33032
     RDKit          2D

 10  9  0  0  1  0  0  0  0  0999 V2000
    5.4641    1.0600    0.0000 O   0  0  0  0  0  0  0  0  0  0  0  0
    2.0000   -1.9400    0.0000 O   0  0  0  0  0  0  0  0  0  0  0  0
    4.5981    2.5600    0.0000 O   0  0  0  0  0  0  0  0  0  0  0  0
    3.7320   -1.9400    0.0000 O   0  0  0  0  0  0  0  0  0  0  0  0
    2.8660    1.5600    0.0000 N   0  0  0  0  0  0  0  0  0  0  0  0
    3.7320    0.0600    0.0000 C   0  0  0  0  0  0  0  0  0  0  0  0
    3.7320    1.0600    0.0000 C   0  0  0  0  0  0  0  0  0  0  0  0
    2.8660   -0.4400    0.0000 C   0  0  0  0  0  0  0  0  0  0  0  0
    4.5981    1.5600    0.0000 C   0  0  0  0  0  0  0  0  0  0  0  0
    2.8660   -1.4400    0.0000 C   0  0  0  0  0  0  0  0  0  0  0  0
  1  9  1  0
  2 10  1  0
  3  9  2  0
  4 10  2  0
  7  5  1  6
  6  7  1  0
  6  8  1  0
  7  9  1  0
  8 10  1  0
M  END
>  <PUBCHEM_COMPOUND_CID>  (6) 
33032

>  <PUBCHEM_COMPOUND_CANONICALIZED>  (6) 
1

>  <PUBCHEM_CACTVS_COMPLEXITY>  (6) 
145

>  <PUBCHEM_CACTVS_HBOND_ACCEPTOR>  (6) 
5

>  <PUBCHEM_CACTVS_HBOND_DONOR>  (6) 
3

>  <PUBCHEM_CACTVS_ROTATABLE_BOND>  (6) 
4

>  <PUBCHEM_CACTVS_SUBSKEYS>  (6) 
AAADccBiOAAAAAAAAAAAAAAAAAAAAAAAAAAAAAAAAAAAAAAAAAAAHgAQCAAACCjBgAQACABAAgAIAACQCAAAAAAAAAAAAIGAAAACABIAgAAAQAAEEAAAAACsJgAAAAAAAAAAAAAAAAAAAAAAAAAAAAAAAA==

>  <PUBCHEM_IUPAC_OPENEYE_NAME>  (6) 
(2S)-2-aminopentanedioic acid

>  <PUBCHEM_IUPAC_CAS_NAME>  (6) 
(2S)-2-aminopentanedioic acid

>  <PUBCHEM_IUPAC_NAME_MARKUP>  (6) 
(2<I>S</I>)-2-aminopentanedioic acid

>  <PUBCHEM_IUPAC_NAME>  (6) 
(2S)-2-aminopentanedioic acid

>  <PUBCHEM_IUPAC_SYSTEMATIC_NAME>  (6) 
(2S)-2-azanylpentanedioic acid

>  <PUBCHEM_IUPAC_TRADITIONAL_NAME>  (6) 
(2S)-2-aminoglutaric acid

>  <PUBCHEM_IUPAC_INCHI>  (6) 
InChI=1S/C5H9NO4/c6-3(5(9)10)1-2-4(7)8/h3H,1-2,6H2,(H,7,8)(H,9,10)/t3-/m0/s1

>  <PUBCHEM_IUPAC_INCHIKEY>  (6) 
WHUUTDBJXJRKMK-VKHMYHEASA-N

>  <PUBCHEM_XLOGP3>  (6) 
-3.7

>  <PUBCHEM_EXACT_MASS>  (6) 
147.05315777

>  <PUBCHEM_MOLECULAR_FORMULA>  (6) 
C5H9NO4

>  <PUBCHEM_MOLECULAR_WEIGHT>  (6) 
147.13

>  <PUBCHEM_OPENEYE_CAN_SMILES>  (6) 
C(CC(=O)O)C(C(=O)O)N

>  <PUBCHEM_OPENEYE_ISO_SMILES>  (6) 
C(CC(=O)O)[C@@H](C(=O)O)N

>  <PUBCHEM_CACTVS_TPSA>  (6) 
101

>  <PUBCHEM_MONOISOTOPIC_WEIGHT>  (6) 
147.05315777

>  <PUBCHEM_TOTAL_CHARGE>  (6) 
0

>  <PUBCHEM_HEAVY_ATOM_COUNT>  (6) 
10

>  <PUBCHEM_ATOM_DEF_STEREO_COUNT>  (6) 
1

>  <PUBCHEM_ATOM_UDEF_STEREO_COUNT>  (6) 
0

>  <PUBCHEM_BOND_DEF_STEREO_COUNT>  (6) 
0

>  <PUBCHEM_BOND_UDEF_STEREO_COUNT>  (6) 
0

>  <PUBCHEM_ISOTOPIC_ATOM_COUNT>  (6) 
0

>  <PUBCHEM_COMPONENT_COUNT>  (6) 
1

>  <PUBCHEM_CACTVS_TAUTO_COUNT>  (6) 
1

>  <PUBCHEM_COORDINATE_TYPE>  (6) 
1
5
255

>  <PUBCHEM_BONDANNOTATIONS>  (6) 
7  5  6

$$$$
5961
     RDKit          2D

 10  9  0  0  1  0  0  0  0  0999 V2000
    6.0010    1.0600    0.0000 O   0  0  0  0  0  0  0  0  0  0  0  0
    5.1350    2.5600    0.0000 O   0  0  0  0  0  0  0  0  0  0  0  0
    4.2690   -1.9400    0.0000 O   0  0  0  0  0  0  0  0  0  0  0  0
    3.4030    1.5600    0.0000 N   0  0  0  0  0  0  0  0  0  0  0  0
    2.5369   -1.9400    0.0000 N   0  0  0  0  0  0  0  0  0  0  0  0
    4.2690    0.0600    0.0000 C   0  0  0  0  0  0  0  0  0  0  0  0
    4.2690    1.0600    0.0000 C   0  0  0  0  0  0  0  0  0  0  0  0
    3.4030   -0.4400    0.0000 C   0  0  0  0  0  0  0  0  0  0  0  0
    5.1350    1.5600    0.0000 C   0  0  0  0  0  0  0  0  0  0  0  0
    3.4030   -1.4400    0.0000 C   0  0  0  0  0  0  0  0  0  0  0  0
  1  9  1  0
  2  9  2  0
  3 10  2  0
  7  4  1  6
  5 10  1  0
  6  7  1  0
  6  8  1  0
  7  9  1  0
  8 10  1  0
M  END
>  <PUBCHEM_COMPOUND_CID>  (7) 
5961

>  <PUBCHEM_COMPOUND_CANONICALIZED>  (7) 
1

>  <PUBCHEM_CACTVS_COMPLEXITY>  (7) 
146

>  <PUBCHEM_CACTVS_HBOND_ACCEPTOR>  (7) 
4

>  <PUBCHEM_CACTVS_HBOND_DONOR>  (7) 
3

>  <PUBCHEM_CACTVS_ROTATABLE_BOND>  (7) 
4

>  <PUBCHEM_CACTVS_SUBSKEYS>  (7) 
AAADccBjMAAAAAAAAAAAAAAAAAAAAAAAAAAAAAAAAAAAAAAAAAAAHgAQCAAACCjBgAQACABAAgAIAAGQGAAAAAAAAAAAAIGAAAACABIAgAAAQAAEEAAAAACcFwAAAAAAAAAAAAAAAAAAAAAAAAAAAAAAAA==

>  <PUBCHEM_IUPAC_OPENEYE_NAME>  (7) 
(2S)-2,5-diamino-5-oxo-pentanoic acid

>  <PUBCHEM_IUPAC_CAS_NAME>  (7) 
(2S)-2,5-diamino-5-oxopentanoic acid

>  <PUBCHEM_IUPAC_NAME_MARKUP>  (7) 
(2<I>S</I>)-2,5-diamino-5-oxopentanoic acid

>  <PUBCHEM_IUPAC_NAME>  (7) 
(2S)-2,5-diamino-5-oxopentanoic acid

>  <PUBCHEM_IUPAC_SYSTEMATIC_NAME>  (7) 
(2S)-2,5-bis(azanyl)-5-oxidanylidene-pentanoic acid

>  <PUBCHEM_IUPAC_TRADITIONAL_NAME>  (7) 
(2S)-2,5-diamino-5-keto-valeric acid

>  <PUBCHEM_IUPAC_INCHI>  (7) 
InChI=1S/C5H10N2O3/c6-3(5(9)10)1-2-4(7)8/h3H,1-2,6H2,(H2,7,8)(H,9,10)/t3-/m0/s1

>  <PUBCHEM_IUPAC_INCHIKEY>  (7) 
ZDXPYRJPNDTMRX-VKHMYHEASA-N

>  <PUBCHEM_XLOGP3>  (7) 
-3.1

>  <PUBCHEM_EXACT_MASS>  (7) 
146.06914219

>  <PUBCHEM_MOLECULAR_FORMULA>  (7) 
C5H10N2O3

>  <PUBCHEM_MOLECULAR_WEIGHT>  (7) 
146.14

>  <PUBCHEM_OPENEYE_CAN_SMILES>  (7) 
C(CC(=O)N)C(C(=O)O)N

>  <PUBCHEM_OPENEYE_ISO_SMILES>  (7) 
C(CC(=O)N)[C@@H](C(=O)O)N

>  <PUBCHEM_CACTVS_TPSA>  (7) 
106

>  <PUBCHEM_MONOISOTOPIC_WEIGHT>  (7) 
146.06914219

>  <PUBCHEM_TOTAL_CHARGE>  (7) 
0

>  <PUBCHEM_HEAVY_ATOM_COUNT>  (7) 
10

>  <PUBCHEM_ATOM_DEF_STEREO_COUNT>  (7) 
1

>  <PUBCHEM_ATOM_UDEF_STEREO_COUNT>  (7) 
0

>  <PUBCHEM_BOND_DEF_STEREO_COUNT>  (7) 
0

>  <PUBCHEM_BOND_UDEF_STEREO_COUNT>  (7) 
0

>  <PUBCHEM_ISOTOPIC_ATOM_COUNT>  (7) 
0

>  <PUBCHEM_COMPONENT_COUNT>  (7) 
1

>  <PUBCHEM_CACTVS_TAUTO_COUNT>  (7) 
-1

>  <PUBCHEM_COORDINATE_TYPE>  (7) 
1
5
255

>  <PUBCHEM_BONDANNOTATIONS>  (7) 
7  4  6

$$$$
750
     RDKit          2D

  5  4  0  0  0  0  0  0  0  0999 V2000
    2.5369    0.7500    0.0000 O   0  0  0  0  0  0  0  0  0  0  0  0
    3.4030   -0.7500    0.0000 O   0  0  0  0  0  0  0  0  0  0  0  0
    5.1350    0.2500    0.0000 N   0  0  0  0  0  0  0  0  0  0  0  0
    4.2690    0.7500    0.0000 C   0  0  0  0  0  0  0  0  0  0  0  0
    3.4030    0.2500    0.0000 C   0  0  0  0  0  0  0  0  0  0  0  0
  1  5  1  0
  2  5  2  0
  3  4  1  0
  4  5  1  0
M  END
>  <PUBCHEM_COMPOUND_CID>  (8) 
750

>  <PUBCHEM_COMPOUND_CANONICALIZED>  (8) 
1

>  <PUBCHEM_CACTVS_COMPLEXITY>  (8) 
42.9

>  <PUBCHEM_CACTVS_HBOND_ACCEPTOR>  (8) 
3

>  <PUBCHEM_CACTVS_HBOND_DONOR>  (8) 
2

>  <PUBCHEM_CACTVS_ROTATABLE_BOND>  (8) 
1

>  <PUBCHEM_CACTVS_SUBSKEYS>  (8) 
AAADcYBCMAAAAAAAAAAAAAAAAAAAAAAAAAAAAAAAAAAAAAAAAAAAHgAQCAAAAADBgAQACABAAgAIAACQCAAAAAAAAAAAAICAAAACAAAAAAAAAAAAAAAAAAAAAAAAAAAAAAAAAAAAAAAAAAAAAAAAAAAAAA==

>  <PUBCHEM_IUPAC_OPENEYE_NAME>  (8) 
2-aminoacetic acid

>  <PUBCHEM_IUPAC_CAS_NAME>  (8) 
2-aminoacetic acid

>  <PUBCHEM_IUPAC_NAME_MARKUP>  (8) 
2-aminoacetic acid

>  <PUBCHEM_IUPAC_NAME>  (8) 
2-aminoacetic acid

>  <PUBCHEM_IUPAC_SYSTEMATIC_NAME>  (8) 
2-azanylethanoic acid

>  <PUBCHEM_IUPAC_TRADITIONAL_NAME>  (8) 
2-aminoacetic acid

>  <PUBCHEM_IUPAC_INCHI>  (8) 
InChI=1S/C2H5NO2/c3-1-2(4)5/h1,3H2,(H,4,5)

>  <PUBCHEM_IUPAC_INCHIKEY>  (8) 
DHMQDGOQFOQNFH-UHFFFAOYSA-N

>  <PUBCHEM_XLOGP3>  (8) 
-3.2

>  <PUBCHEM_EXACT_MASS>  (8) 
75.032028402

>  <PUBCHEM_MOLECULAR_FORMULA>  (8) 
C2H5NO2

>  <PUBCHEM_MOLECULAR_WEIGHT>  (8) 
75.07

>  <PUBCHEM_OPENEYE_CAN_SMILES>  (8) 
C(C(=O)O)N

>  <PUBCHEM_OPENEYE_ISO_SMILES>  (8) 
C(C(=O)O)N

>  <PUBCHEM_CACTVS_TPSA>  (8) 
63.3

>  <PUBCHEM_MONOISOTOPIC_WEIGHT>  (8) 
75.032028402

>  <PUBCHEM_TOTAL_CHARGE>  (8) 
0

>  <PUBCHEM_HEAVY_ATOM_COUNT>  (8) 
5

>  <PUBCHEM_ATOM_DEF_STEREO_COUNT>  (8) 
0

>  <PUBCHEM_ATOM_UDEF_STEREO_COUNT>  (8) 
0

>  <PUBCHEM_BOND_DEF_STEREO_COUNT>  (8) 
0

>  <PUBCHEM_BOND_UDEF_STEREO_COUNT>  (8) 
0

>  <PUBCHEM_ISOTOPIC_ATOM_COUNT>  (8) 
0

>  <PUBCHEM_COMPONENT_COUNT>  (8) 
1

>  <PUBCHEM_CACTVS_TAUTO_COUNT>  (8) 
-1

>  <PUBCHEM_COORDINATE_TYPE>  (8) 
1
5
255

$$$$
6274
     RDKit          2D

 11 11  0  0  1  0  0  0  0  0999 V2000
    2.5896    0.4476    0.0000 O   0  0  0  0  0  0  0  0  0  0  0  0
    3.1249   -1.1997    0.0000 O   0  0  0  0  0  0  0  0  0  0  0  0
    6.7871   -0.8605    0.0000 N   0  0  0  0  0  0  0  0  0  0  0  0
    4.4918    1.0656    0.0000 N   0  0  0  0  0  0  0  0  0  0  0  0
    7.2871    0.6784    0.0000 N   0  0  0  0  0  0  0  0  0  0  0  0
    5.0270   -0.5817    0.0000 C   0  0  0  0  0  0  0  0  0  0  0  0
    4.2839    0.0874    0.0000 C   0  0  0  0  0  0  0  0  0  0  0  0
    5.9781   -0.2727    0.0000 C   0  0  0  0  0  0  0  0  0  0  0  0
    3.3328   -0.2216    0.0000 C   0  0  0  0  0  0  0  0  0  0  0  0
    6.2871    0.6784    0.0000 C   0  0  0  0  0  0  0  0  0  0  0  0
    7.5961   -0.2727    0.0000 C   0  0  0  0  0  0  0  0  0  0  0  0
  1  9  1  0
  2  9  2  0
  3  8  1  0
  3 11  1  0
  7  4  1  1
  5 10  1  0
  5 11  2  0
  6  7  1  0
  6  8  1  0
  7  9  1  0
  8 10  2  0
M  END
>  <PUBCHEM_COMPOUND_CID>  (9) 
6274

>  <PUBCHEM_COMPOUND_CANONICALIZED>  (9) 
1

>  <PUBCHEM_CACTVS_COMPLEXITY>  (9) 
151

>  <PUBCHEM_CACTVS_HBOND_ACCEPTOR>  (9) 
4

>  <PUBCHEM_CACTVS_HBOND_DONOR>  (9) 
3

>  <PUBCHEM_CACTVS_ROTATABLE_BOND>  (9) 
3

>  <PUBCHEM_CACTVS_SUBSKEYS>  (9) 
AAADccBjMAAAAAAAAAAAAAAAAAAAAWAAAAAAAAAAAAAAAAABgAAAHgAQCAAACCjBlgQtmBbJkgCoART3bAAAgC2xEqABUYG4cAiCaBJA2QGUQAAMkAJAQCC8EQIAAAAAAAAAAAAAAAAAAAAAAAAAAAAAAA==

>  <PUBCHEM_IUPAC_OPENEYE_NAME>  (9) 
(2S)-2-amino-3-(1H-imidazol-5-yl)propanoic acid

>  <PUBCHEM_IUPAC_CAS_NAME>  (9) 
(2S)-2-amino-3-(1H-imidazol-5-yl)propanoic acid

>  <PUBCHEM_IUPAC_NAME_MARKUP>  (9) 
(2<I>S</I>)-2-amino-3-(1<I>H</I>-imidazol-5-yl)propanoic acid

>  <PUBCHEM_IUPAC_NAME>  (9) 
(2S)-2-amino-3-(1H-imidazol-5-yl)propanoic acid

>  <PUBCHEM_IUPAC_SYSTEMATIC_NAME>  (9) 
(2S)-2-azanyl-3-(1H-imidazol-5-yl)propanoic acid

>  <PUBCHEM_IUPAC_TRADITIONAL_NAME>  (9) 
(2S)-2-amino-3-(1H-imidazol-5-yl)propionic acid

>  <PUBCHEM_IUPAC_INCHI>  (9) 
InChI=1S/C6H9N3O2/c7-5(6(10)11)1-4-2-8-3-9-4/h2-3,5H,1,7H2,(H,8,9)(H,10,11)/t5-/m0/s1

>  <PUBCHEM_IUPAC_INCHIKEY>  (9) 
HNDVDQJCIGZPNO-YFKPBYRVSA-N

>  <PUBCHEM_XLOGP3_AA>  (9) 
-3.2

>  <PUBCHEM_EXACT_MASS>  (9) 
155.069476538

>  <PUBCHEM_MOLECULAR_FORMULA>  (9) 
C6H9N3O2

>  <PUBCHEM_MOLECULAR_WEIGHT>  (9) 
155.15

>  <PUBCHEM_OPENEYE_CAN_SMILES>  (9) 
C1=C(NC=N1)CC(C(=O)O)N

>  <PUBCHEM_OPENEYE_ISO_SMILES>  (9) 
C1=C(NC=N1)C[C@@H](C(=O)O)N

>  <PUBCHEM_CACTVS_TPSA>  (9) 
92

>  <PUBCHEM_MONOISOTOPIC_WEIGHT>  (9) 
155.069476538

>  <PUBCHEM_TOTAL_CHARGE>  (9) 
0

>  <PUBCHEM_HEAVY_ATOM_COUNT>  (9) 
11

>  <PUBCHEM_ATOM_DEF_STEREO_COUNT>  (9) 
1

>  <PUBCHEM_ATOM_UDEF_STEREO_COUNT>  (9) 
0

>  <PUBCHEM_BOND_DEF_STEREO_COUNT>  (9) 
0

>  <PUBCHEM_BOND_UDEF_STEREO_COUNT>  (9) 
0

>  <PUBCHEM_ISOTOPIC_ATOM_COUNT>  (9) 
0

>  <PUBCHEM_COMPONENT_COUNT>  (9) 
1

>  <PUBCHEM_CACTVS_TAUTO_COUNT>  (9) 
2

>  <PUBCHEM_COORDINATE_TYPE>  (9) 
1
5
255

>  <PUBCHEM_BONDANNOTATIONS>  (9) 
3  11  8
3  8  8
7  4  5
5  10  8
5  11  8
8  10  8

$$$$
6306
     RDKit          2D

  9  8  0  0  1  0  0  0  0  0999 V2000
    2.5369   -0.0950    0.0000 O   0  0  0  0  0  0  0  0  0  0  0  0
    3.4030    1.4050    0.0000 O   0  0  0  0  0  0  0  0  0  0  0  0
    4.2690   -1.0950    0.0000 N   0  0  0  0  0  0  0  0  0  0  0  0
    5.1350    0.4050    0.0000 C   0  0  0  0  0  0  0  0  0  0  0  0
    4.2690   -0.0950    0.0000 C   0  0  0  0  0  0  0  0  0  0  0  0
    6.0010   -0.0950    0.0000 C   0  0  0  0  0  0  0  0  0  0  0  0
    5.1350    1.4050    0.0000 C   0  0  0  0  0  0  0  0  0  0  0  0
    6.8671    0.4050    0.0000 C   0  0  0  0  0  0  0  0  0  0  0  0
    3.4030    0.4050    0.0000 C   0  0  0  0  0  0  0  0  0  0  0  0
  1  9  1  0
  2  9  2  0
  5  3  1  6
  4  5  1  0
  4  6  1  0
  4  7  1  1
  5  9  1  0
  6  8  1  0
M  END
>  <PUBCHEM_COMPOUND_CID>  (10) 
6306

>  <PUBCHEM_COMPOUND_CANONICALIZED>  (10) 
1

>  <PUBCHEM_CACTVS_COMPLEXITY>  (10) 
103

>  <PUBCHEM_CACTVS_HBOND_ACCEPTOR>  (10) 
3

>  <PUBCHEM_CACTVS_HBOND_DONOR>  (10) 
2

>  <PUBCHEM_CACTVS_ROTATABLE_BOND>  (10) 
3

>  <PUBCHEM_CACTVS_SUBSKEYS>  (10) 
AAADccBiMAAAAAAAAAAAAAAAAAAAAAAAAAAAAAAAAAAAAAAAAAAAHgAQCAAADSjBgAQCCABAAgAIAACQCAAAAAAAAAAAAIGAAAACABIAgAAAQAAEEAAAAACIAAAKAAAAAAAAAAAAAAAAAAAAAAAAAAAAAA==

>  <PUBCHEM_IUPAC_OPENEYE_NAME>  (10) 
(2S,3S)-2-amino-3-methyl-pentanoic acid

>  <PUBCHEM_IUPAC_CAS_NAME>  (10) 
(2S,3S)-2-amino-3-methylpentanoic acid

>  <PUBCHEM_IUPAC_NAME_MARKUP>  (10) 
(2<I>S</I>,3<I>S</I>)-2-amino-3-methylpentanoic acid

>  <PUBCHEM_IUPAC_NAME>  (10) 
(2S,3S)-2-amino-3-methylpentanoic acid

>  <PUBCHEM_IUPAC_SYSTEMATIC_NAME>  (10) 
(2S,3S)-2-azanyl-3-methyl-pentanoic acid

>  <PUBCHEM_IUPAC_TRADITIONAL_NAME>  (10) 
(2S,3S)-2-amino-3-methyl-valeric acid

>  <PUBCHEM_IUPAC_INCHI>  (10) 
InChI=1S/C6H13NO2/c1-3-4(2)5(7)6(8)9/h4-5H,3,7H2,1-2H3,(H,8,9)/t4-,5-/m0/s1

>  <PUBCHEM_IUPAC_INCHIKEY>  (10) 
AGPKZVBTJJNPAG-WHFBIAKZSA-N

>  <PUBCHEM_XLOGP3>  (10) 
-1.7

>  <PUBCHEM_EXACT_MASS>  (10) 
131.094628657

>  <PUBCHEM_MOLECULAR_FORMULA>  (10) 
C6H13NO2

>  <PUBCHEM_MOLECULAR_WEIGHT>  (10) 
131.17

>  <PUBCHEM_OPENEYE_CAN_SMILES>  (10) 
CCC(C)C(C(=O)O)N

>  <PUBCHEM_OPENEYE_ISO_SMILES>  (10) 
CC[C@H](C)[C@@H](C(=O)O)N

>  <PUBCHEM_CACTVS_TPSA>  (10) 
63.3

>  <PUBCHEM_MONOISOTOPIC_WEIGHT>  (10) 
131.094628657

>  <PUBCHEM_TOTAL_CHARGE>  (10) 
0

>  <PUBCHEM_HEAVY_ATOM_COUNT>  (10) 
9

>  <PUBCHEM_ATOM_DEF_STEREO_COUNT>  (10) 
2

>  <PUBCHEM_ATOM_UDEF_STEREO_COUNT>  (10) 
0

>  <PUBCHEM_BOND_DEF_STEREO_COUNT>  (10) 
0

>  <PUBCHEM_BOND_UDEF_STEREO_COUNT>  (10) 
0

>  <PUBCHEM_ISOTOPIC_ATOM_COUNT>  (10) 
0

>  <PUBCHEM_COMPONENT_COUNT>  (10) 
1

>  <PUBCHEM_CACTVS_TAUTO_COUNT>  (10) 
1

>  <PUBCHEM_COORDINATE_TYPE>  (10) 
1
5
255

>  <PUBCHEM_BONDANNOTATIONS>  (10) 
5  3  6
4  7  5

$$$$
6106
     RDKit          2D

  9  8  0  0  1  0  0  0  0  0999 V2000
    5.4641    0.5000    0.0000 O   0  0  0  0  0  0  0  0  0  0  0  0
    4.5981    2.0000    0.0000 O   0  0  0  0  0  0  0  0  0  0  0  0
    2.8660    1.0000    0.0000 N   0  0  0  0  0  0  0  0  0  0  0  0
    2.8660   -1.0000    0.0000 C   0  0  0  0  0  0  0  0  0  0  0  0
    3.7320   -0.5000    0.0000 C   0  0  0  0  0  0  0  0  0  0  0  0
    3.7320    0.5000    0.0000 C   0  0  0  0  0  0  0  0  0  0  0  0
    2.8660   -2.0000    0.0000 C   0  0  0  0  0  0  0  0  0  0  0  0
    2.0000   -0.5000    0.0000 C   0  0  0  0  0  0  0  0  0  0  0  0
    4.5981    1.0000    0.0000 C   0  0  0  0  0  0  0  0  0  0  0  0
  1  9  1  0
  2  9  2  0
  6  3  1  6
  4  5  1  0
  4  7  1  0
  4  8  1  0
  5  6  1  0
  6  9  1  0
M  END
>  <PUBCHEM_COMPOUND_CID>  (11) 
6106

>  <PUBCHEM_COMPOUND_CANONICALIZED>  (11) 
1

>  <PUBCHEM_CACTVS_COMPLEXITY>  (11) 
101

>  <PUBCHEM_CACTVS_HBOND_ACCEPTOR>  (11) 
3

>  <PUBCHEM_CACTVS_HBOND_DONOR>  (11) 
2

>  <PUBCHEM_CACTVS_ROTATABLE_BOND>  (11) 
3

>  <PUBCHEM_CACTVS_SUBSKEYS>  (11) 
AAADccBiMAAAAAAAAAAAAAAAAAAAAAAAAAAAAAAAAAAAAAAAAAAAHgAQCAAADSjBgAQCCABAAgAIAACQCAAAAAAAAAAAAIGAAAACABIAgAAAQAAEEAAAAACIAAAMAAAAAAAAAAAAAAAAAAAAAAAAAAAAAA==

>  <PUBCHEM_IUPAC_OPENEYE_NAME>  (11) 
(2S)-2-amino-4-methyl-pentanoic acid

>  <PUBCHEM_IUPAC_CAS_NAME>  (11) 
(2S)-2-amino-4-methylpentanoic acid

>  <PUBCHEM_IUPAC_NAME_MARKUP>  (11) 
(2<I>S</I>)-2-amino-4-methylpentanoic acid

>  <PUBCHEM_IUPAC_NAME>  (11) 
(2S)-2-amino-4-methylpentanoic acid

>  <PUBCHEM_IUPAC_SYSTEMATIC_NAME>  (11) 
(2S)-2-azanyl-4-methyl-pentanoic acid

>  <PUBCHEM_IUPAC_TRADITIONAL_NAME>  (11) 
(2S)-2-amino-4-methyl-valeric acid

>  <PUBCHEM_IUPAC_INCHI>  (11) 
InChI=1S/C6H13NO2/c1-4(2)3-5(7)6(8)9/h4-5H,3,7H2,1-2H3,(H,8,9)/t5-/m0/s1

>  <PUBCHEM_IUPAC_INCHIKEY>  (11) 
ROHFNLRQFUQHCH-YFKPBYRVSA-N

>  <PUBCHEM_XLOGP3>  (11) 
-1.5

>  <PUBCHEM_EXACT_MASS>  (11) 
131.094628657

>  <PUBCHEM_MOLECULAR_FORMULA>  (11) 
C6H13NO2

>  <PUBCHEM_MOLECULAR_WEIGHT>  (11) 
131.17

>  <PUBCHEM_OPENEYE_CAN_SMILES>  (11) 
CC(C)CC(C(=O)O)N

>  <PUBCHEM_OPENEYE_ISO_SMILES>  (11) 
CC(C)C[C@@H](C(=O)O)N

>  <PUBCHEM_CACTVS_TPSA>  (11) 
63.3

>  <PUBCHEM_MONOISOTOPIC_WEIGHT>  (11) 
131.094628657

>  <PUBCHEM_TOTAL_CHARGE>  (11) 
0

>  <PUBCHEM_HEAVY_ATOM_COUNT>  (11) 
9

>  <PUBCHEM_ATOM_DEF_STEREO_COUNT>  (11) 
1

>  <PUBCHEM_ATOM_UDEF_STEREO_COUNT>  (11) 
0

>  <PUBCHEM_BOND_DEF_STEREO_COUNT>  (11) 
0

>  <PUBCHEM_BOND_UDEF_STEREO_COUNT>  (11) 
0

>  <PUBCHEM_ISOTOPIC_ATOM_COUNT>  (11) 
0

>  <PUBCHEM_COMPONENT_COUNT>  (11) 
1

>  <PUBCHEM_CACTVS_TAUTO_COUNT>  (11) 
1

>  <PUBCHEM_COORDINATE_TYPE>  (11) 
1
5
255

>  <PUBCHEM_BONDANNOTATIONS>  (11) 
6  3  6

$$$$
5962
     RDKit          2D

 10  9  0  0  1  0  0  0  0  0999 V2000
    6.0010    1.4050    0.0000 O   0  0  0  0  0  0  0  0  0  0  0  0
    5.1350    2.9050    0.0000 O   0  0  0  0  0  0  0  0  0  0  0  0
    3.4030    1.9050    0.0000 N   0  0  0  0  0  0  0  0  0  0  0  0
    2.5369   -2.5950    0.0000 N   0  0  0  0  0  0  0  0  0  0  0  0
    3.4030   -0.0950    0.0000 C   0  0  0  0  0  0  0  0  0  0  0  0
    4.2690    0.4050    0.0000 C   0  0  0  0  0  0  0  0  0  0  0  0
    3.4030   -1.0950    0.0000 C   0  0  0  0  0  0  0  0  0  0  0  0
    4.2690    1.4050    0.0000 C   0  0  0  0  0  0  0  0  0  0  0  0
    2.5369   -1.5950    0.0000 C   0  0  0  0  0  0  0  0  0  0  0  0
    5.1350    1.9050    0.0000 C   0  0  0  0  0  0  0  0  0  0  0  0
  1 10  1  0
  2 10  2  0
  8  3  1  6
  4  9  1  0
  5  6  1  0
  5  7  1  0
  6  8  1  0
  7  9  1  0
  8 10  1  0
M  END
>  <PUBCHEM_COMPOUND_CID>  (12) 
5962

>  <PUBCHEM_COMPOUND_CANONICALIZED>  (12) 
1

>  <PUBCHEM_CACTVS_COMPLEXITY>  (12) 
106

>  <PUBCHEM_CACTVS_HBOND_ACCEPTOR>  (12) 
4

>  <PUBCHEM_CACTVS_HBOND_DONOR>  (12) 
3

>  <PUBCHEM_CACTVS_ROTATABLE_BOND>  (12) 
5

>  <PUBCHEM_CACTVS_SUBSKEYS>  (12) 
AAADccBjMAAAAAAAAAAAAAAAAAAAAAAAAAAAAAAAAAAAAAAAAAAAHgAQCAAACCjBgAQACABAAgAIAACQCAAAAAAAAAAAAIGAAAACABIAgAAAQAAEEAAAAAGYSAAAAAAAAAAAAAAAAAAAAAAAAAAAAAAAAA==

>  <PUBCHEM_IUPAC_OPENEYE_NAME>  (12) 
(2S)-2,6-diaminohexanoic acid

>  <PUBCHEM_IUPAC_CAS_NAME>  (12) 
(2S)-2,6-diaminohexanoic acid

>  <PUBCHEM_IUPAC_NAME_MARKUP>  (12) 
(2<I>S</I>)-2,6-diaminohexanoic acid

>  <PUBCHEM_IUPAC_NAME>  (12) 
(2S)-2,6-diaminohexanoic acid

>  <PUBCHEM_IUPAC_SYSTEMATIC_NAME>  (12) 
(2S)-2,6-bis(azanyl)hexanoic acid

>  <PUBCHEM_IUPAC_TRADITIONAL_NAME>  (12) 
(2S)-2,6-diaminohexanoic acid

>  <PUBCHEM_IUPAC_INCHI>  (12) 
InChI=1S/C6H14N2O2/c7-4-2-1-3-5(8)6(9)10/h5H,1-4,7-8H2,(H,9,10)/t5-/m0/s1

>  <PUBCHEM_IUPAC_INCHIKEY>  (12) 
KDXKERNSBIXSRK-YFKPBYRVSA-N

>  <PUBCHEM_XLOGP3>  (12) 
-3

>  <PUBCHEM_EXACT_MASS>  (12) 
146.105527694

>  <PUBCHEM_MOLECULAR_FORMULA>  (12) 
C6H14N2O2

>  <PUBCHEM_MOLECULAR_WEIGHT>  (12) 
146.19

>  <PUBCHEM_OPENEYE_CAN_SMILES>  (12) 
C(CCN)CC(C(=O)O)N

>  <PUBCHEM_OPENEYE_ISO_SMILES>  (12) 
C(CCN)C[C@@H](C(=O)O)N

>  <PUBCHEM_CACTVS_TPSA>  (12) 
89.3

>  <PUBCHEM_MONOISOTOPIC_WEIGHT>  (12) 
146.105527694

>  <PUBCHEM_TOTAL_CHARGE>  (12) 
0

>  <PUBCHEM_HEAVY_ATOM_COUNT>  (12) 
10

>  <PUBCHEM_ATOM_DEF_STEREO_COUNT>  (12) 
1

>  <PUBCHEM_ATOM_UDEF_STEREO_COUNT>  (12) 
0

>  <PUBCHEM_BOND_DEF_STEREO_COUNT>  (12) 
0

>  <PUBCHEM_BOND_UDEF_STEREO_COUNT>  (12) 
0

>  <PUBCHEM_ISOTOPIC_ATOM_COUNT>  (12) 
0

>  <PUBCHEM_COMPONENT_COUNT>  (12) 
1

>  <PUBCHEM_CACTVS_TAUTO_COUNT>  (12) 
4

>  <PUBCHEM_COORDINATE_TYPE>  (12) 
1
5
255

>  <PUBCHEM_BONDANNOTATIONS>  (12) 
8  3  6

$$$$
6137
     RDKit          2D

  9  8  0  0  1  0  0  0  0  0999 V2000
    2.8660   -1.7500    0.0000 S   0  0  0  0  0  0  0  0  0  0  0  0
    5.4641    0.7500    0.0000 O   0  0  0  0  0  0  0  0  0  0  0  0
    4.5981    2.2500    0.0000 O   0  0  0  0  0  0  0  0  0  0  0  0
    2.8660    1.2500    0.0000 N   0  0  0  0  0  0  0  0  0  0  0  0
    3.7320   -0.2500    0.0000 C   0  0  0  0  0  0  0  0  0  0  0  0
    3.7320    0.7500    0.0000 C   0  0  0  0  0  0  0  0  0  0  0  0
    2.8660   -0.7500    0.0000 C   0  0  0  0  0  0  0  0  0  0  0  0
    4.5981    1.2500    0.0000 C   0  0  0  0  0  0  0  0  0  0  0  0
    2.0000   -2.2500    0.0000 C   0  0  0  0  0  0  0  0  0  0  0  0
  1  7  1  0
  1  9  1  0
  2  8  1  0
  3  8  2  0
  6  4  1  6
  5  6  1  0
  5  7  1  0
  6  8  1  0
M  END
>  <PUBCHEM_COMPOUND_CID>  (13) 
6137

>  <PUBCHEM_COMPOUND_CANONICALIZED>  (13) 
1

>  <PUBCHEM_CACTVS_COMPLEXITY>  (13) 
97

>  <PUBCHEM_CACTVS_HBOND_ACCEPTOR>  (13) 
4

>  <PUBCHEM_CACTVS_HBOND_DONOR>  (13) 
2

>  <PUBCHEM_CACTVS_ROTATABLE_BOND>  (13) 
4

>  <PUBCHEM_CACTVS_SUBSKEYS>  (13) 
AAADccBiMABAAAAAAAAAAAAAAAAAAAAAAAAAAAAAAAAAAAAAAAAAHgQQCAAACCjFwASCCABAAggIAACQCAAAAAAAABAAAIGAAAACABAgAAAAQAAEEAAAAAAAAAAAAAAAAAAAAAAAAAAAAAAAAAAAAAAAAA==

>  <PUBCHEM_IUPAC_OPENEYE_NAME>  (13) 
(2S)-2-amino-4-methylsulfanyl-butanoic acid

>  <PUBCHEM_IUPAC_CAS_NAME>  (13) 
(2S)-2-amino-4-(methylthio)butanoic acid

>  <PUBCHEM_IUPAC_NAME_MARKUP>  (13) 
(2<I>S</I>)-2-amino-4-methylsulfanylbutanoic acid

>  <PUBCHEM_IUPAC_NAME>  (13) 
(2S)-2-amino-4-methylsulfanylbutanoic acid

>  <PUBCHEM_IUPAC_SYSTEMATIC_NAME>  (13) 
(2S)-2-azanyl-4-methylsulfanyl-butanoic acid

>  <PUBCHEM_IUPAC_TRADITIONAL_NAME>  (13) 
(2S)-2-amino-4-(methylthio)butyric acid

>  <PUBCHEM_IUPAC_INCHI>  (13) 
InChI=1S/C5H11NO2S/c1-9-3-2-4(6)5(7)8/h4H,2-3,6H2,1H3,(H,7,8)/t4-/m0/s1

>  <PUBCHEM_IUPAC_INCHIKEY>  (13) 
FFEARJCKVFRZRR-BYPYZUCNSA-N

>  <PUBCHEM_XLOGP3>  (13) 
-1.9

>  <PUBCHEM_EXACT_MASS>  (13) 
149.05104977

>  <PUBCHEM_MOLECULAR_FORMULA>  (13) 
C5H11NO2S

>  <PUBCHEM_MOLECULAR_WEIGHT>  (13) 
149.21

>  <PUBCHEM_OPENEYE_CAN_SMILES>  (13) 
CSCCC(C(=O)O)N

>  <PUBCHEM_OPENEYE_ISO_SMILES>  (13) 
CSCC[C@@H](C(=O)O)N

>  <PUBCHEM_CACTVS_TPSA>  (13) 
88.6

>  <PUBCHEM_MONOISOTOPIC_WEIGHT>  (13) 
149.05104977

>  <PUBCHEM_TOTAL_CHARGE>  (13) 
0

>  <PUBCHEM_HEAVY_ATOM_COUNT>  (13) 
9

>  <PUBCHEM_ATOM_DEF_STEREO_COUNT>  (13) 
1

>  <PUBCHEM_ATOM_UDEF_STEREO_COUNT>  (13) 
0

>  <PUBCHEM_BOND_DEF_STEREO_COUNT>  (13) 
0

>  <PUBCHEM_BOND_UDEF_STEREO_COUNT>  (13) 
0

>  <PUBCHEM_ISOTOPIC_ATOM_COUNT>  (13) 
0

>  <PUBCHEM_COMPONENT_COUNT>  (13) 
1

>  <PUBCHEM_CACTVS_TAUTO_COUNT>  (13) 
1

>  <PUBCHEM_COORDINATE_TYPE>  (13) 
1
5
255

>  <PUBCHEM_BONDANNOTATIONS>  (13) 
6  4  6

$$$$
6140
     RDKit          2D

 12 12  0  0  1  0  0  0  0  0999 V2000
    4.5981    2.1900    0.0000 O   0  0  0  0  0  0  0  0  0  0  0  0
    2.8660    2.1900    0.0000 O   0  0  0  0  0  0  0  0  0  0  0  0
    4.5981    0.1900    0.0000 N   0  0  0  0  0  0  0  0  0  0  0  0
    2.8660    0.1900    0.0000 C   0  0  0  0  0  0  0  0  0  0  0  0
    3.7320    0.6900    0.0000 C   0  0  0  0  0  0  0  0  0  0  0  0
    2.8660   -0.8100    0.0000 C   0  0  0  0  0  0  0  0  0  0  0  0
    2.0000   -1.3100    0.0000 C   0  0  0  0  0  0  0  0  0  0  0  0
    3.7320   -1.3100    0.0000 C   0  0  0  0  0  0  0  0  0  0  0  0
    3.7320    1.6900    0.0000 C   0  0  0  0  0  0  0  0  0  0  0  0
    2.0000   -2.3100    0.0000 C   0  0  0  0  0  0  0  0  0  0  0  0
    3.7320   -2.3100    0.0000 C   0  0  0  0  0  0  0  0  0  0  0  0
    2.8660   -2.8100    0.0000 C   0  0  0  0  0  0  0  0  0  0  0  0
  1  9  1  0
  2  9  2  0
  5  3  1  1
  4  5  1  0
  4  6  1  0
  5  9  1  0
  6  7  2  0
  6  8  1  0
  7 10  1  0
  8 11  2  0
 10 12  2  0
 11 12  1  0
M  END
>  <PUBCHEM_COMPOUND_CID>  (14) 
6140

>  <PUBCHEM_COMPOUND_CANONICALIZED>  (14) 
1

>  <PUBCHEM_CACTVS_COMPLEXITY>  (14) 
153

>  <PUBCHEM_CACTVS_HBOND_ACCEPTOR>  (14) 
3

>  <PUBCHEM_CACTVS_HBOND_DONOR>  (14) 
2

>  <PUBCHEM_CACTVS_ROTATABLE_BOND>  (14) 
3

>  <PUBCHEM_CACTVS_SUBSKEYS>  (14) 
AAADccByMAAAAAAAAAAAAAAAAAAAAAAAAAAwAAAAAAAAAAABAAAAHgAQCAAADCjBmAQwCIBAAgCIAiDSCAACAAAgAAAIiIGAAIgKIDKAkRGAYAAkkAAIiAeYyKCOAAAAAAAAAAAAAAAAAAAAAAAAAAAAAA==

>  <PUBCHEM_IUPAC_OPENEYE_NAME>  (14) 
(2S)-2-amino-3-phenyl-propanoic acid

>  <PUBCHEM_IUPAC_CAS_NAME>  (14) 
(2S)-2-amino-3-phenylpropanoic acid

>  <PUBCHEM_IUPAC_NAME_MARKUP>  (14) 
(2<I>S</I>)-2-amino-3-phenylpropanoic acid

>  <PUBCHEM_IUPAC_NAME>  (14) 
(2S)-2-amino-3-phenylpropanoic acid

>  <PUBCHEM_IUPAC_SYSTEMATIC_NAME>  (14) 
(2S)-2-azanyl-3-phenyl-propanoic acid

>  <PUBCHEM_IUPAC_TRADITIONAL_NAME>  (14) 
(2S)-2-amino-3-phenyl-propionic acid

>  <PUBCHEM_IUPAC_INCHI>  (14) 
InChI=1S/C9H11NO2/c10-8(9(11)12)6-7-4-2-1-3-5-7/h1-5,8H,6,10H2,(H,11,12)/t8-/m0/s1

>  <PUBCHEM_IUPAC_INCHIKEY>  (14) 
COLNVLDHVKWLRT-QMMMGPOBSA-N

>  <PUBCHEM_XLOGP3>  (14) 
-1.5

>  <PUBCHEM_EXACT_MASS>  (14) 
165.078978594

>  <PUBCHEM_MOLECULAR_FORMULA>  (14) 
C9H11NO2

>  <PUBCHEM_MOLECULAR_WEIGHT>  (14) 
165.19

>  <PUBCHEM_OPENEYE_CAN_SMILES>  (14) 
C1=CC=C(C=C1)CC(C(=O)O)N

>  <PUBCHEM_OPENEYE_ISO_SMILES>  (14) 
C1=CC=C(C=C1)C[C@@H](C(=O)O)N

>  <PUBCHEM_CACTVS_TPSA>  (14) 
63.3

>  <PUBCHEM_MONOISOTOPIC_WEIGHT>  (14) 
165.078978594

>  <PUBCHEM_TOTAL_CHARGE>  (14) 
0

>  <PUBCHEM_HEAVY_ATOM_COUNT>  (14) 
12

>  <PUBCHEM_ATOM_DEF_STEREO_COUNT>  (14) 
1

>  <PUBCHEM_ATOM_UDEF_STEREO_COUNT>  (14) 
0

>  <PUBCHEM_BOND_DEF_STEREO_COUNT>  (14) 
0

>  <PUBCHEM_BOND_UDEF_STEREO_COUNT>  (14) 
0

>  <PUBCHEM_ISOTOPIC_ATOM_COUNT>  (14) 
0

>  <PUBCHEM_COMPONENT_COUNT>  (14) 
1

>  <PUBCHEM_CACTVS_TAUTO_COUNT>  (14) 
2

>  <PUBCHEM_COORDINATE_TYPE>  (14) 
1
5
255

>  <PUBCHEM_BONDANNOTATIONS>  (14) 
10  12  8
11  12  8
5  3  5
6  7  8
6  8  8
7  10  8
8  11  8

$$$$
145742
     RDKit          2D

  8  8  0  0  1  0  0  0  0  0999 V2000
    5.3122    0.5282    0.0000 O   0  0  0  0  0  0  0  0  0  0  0  0
    4.7770   -1.1191    0.0000 O   0  0  0  0  0  0  0  0  0  0  0  0
    2.8090   -0.4197    0.0000 N   0  0  0  0  0  0  0  0  0  0  0  0
    3.6180    0.1681    0.0000 C   0  0  0  0  0  0  0  0  0  0  0  0
    3.3090    1.1191    0.0000 C   0  0  0  0  0  0  0  0  0  0  0  0
    2.3090    1.1191    0.0000 C   0  0  0  0  0  0  0  0  0  0  0  0
    2.0000    0.1681    0.0000 C   0  0  0  0  0  0  0  0  0  0  0  0
    4.5691   -0.1410    0.0000 C   0  0  0  0  0  0  0  0  0  0  0  0
  1  8  1  0
  2  8  2  0
  3  4  1  0
  3  7  1  0
  4  5  1  0
  4  8  1  1
  5  6  1  0
  6  7  1  0
M  END
>  <PUBCHEM_COMPOUND_CID>  (15) 
145742

>  <PUBCHEM_COMPOUND_CANONICALIZED>  (15) 
1

>  <PUBCHEM_CACTVS_COMPLEXITY>  (15) 
103

>  <PUBCHEM_CACTVS_HBOND_ACCEPTOR>  (15) 
3

>  <PUBCHEM_CACTVS_HBOND_DONOR>  (15) 
2

>  <PUBCHEM_CACTVS_ROTATABLE_BOND>  (15) 
1

>  <PUBCHEM_CACTVS_SUBSKEYS>  (15) 
AAADccBiMAAAAAAAAAAAAAAAAAAAAWAAAAAAAAAAAAAAAAAAAAAAHgAQCAAACCjBgAQACALAAgAIAACQCAAAAAAAAAAAAIGIAAACABIAgCAEQAAEEACQAACYEQAAAAAAAAAAAAAAAAAAAAAAAAAAAAAAAA==

>  <PUBCHEM_IUPAC_OPENEYE_NAME>  (15) 
(2S)-pyrrolidine-2-carboxylic acid

>  <PUBCHEM_IUPAC_CAS_NAME>  (15) 
(2S)-2-pyrrolidinecarboxylic acid

>  <PUBCHEM_IUPAC_NAME_MARKUP>  (15) 
(2<I>S</I>)-pyrrolidine-2-carboxylic acid

>  <PUBCHEM_IUPAC_NAME>  (15) 
(2S)-pyrrolidine-2-carboxylic acid

>  <PUBCHEM_IUPAC_SYSTEMATIC_NAME>  (15) 
(2S)-pyrrolidine-2-carboxylic acid

>  <PUBCHEM_IUPAC_TRADITIONAL_NAME>  (15) 
(2S)-proline

>  <PUBCHEM_IUPAC_INCHI>  (15) 
InChI=1S/C5H9NO2/c7-5(8)4-2-1-3-6-4/h4,6H,1-3H2,(H,7,8)/t4-/m0/s1

>  <PUBCHEM_IUPAC_INCHIKEY>  (15) 
ONIBWKKTOPOVIA-BYPYZUCNSA-N

>  <PUBCHEM_XLOGP3>  (15) 
-2.5

>  <PUBCHEM_EXACT_MASS>  (15) 
115.063328530

>  <PUBCHEM_MOLECULAR_FORMULA>  (15) 
C5H9NO2

>  <PUBCHEM_MOLECULAR_WEIGHT>  (15) 
115.13

>  <PUBCHEM_OPENEYE_CAN_SMILES>  (15) 
C1CC(NC1)C(=O)O

>  <PUBCHEM_OPENEYE_ISO_SMILES>  (15) 
C1C[C@H](NC1)C(=O)O

>  <PUBCHEM_CACTVS_TPSA>  (15) 
49.3

>  <PUBCHEM_MONOISOTOPIC_WEIGHT>  (15) 
115.063328530

>  <PUBCHEM_TOTAL_CHARGE>  (15) 
0

>  <PUBCHEM_HEAVY_ATOM_COUNT>  (15) 
8

>  <PUBCHEM_ATOM_DEF_STEREO_COUNT>  (15) 
1

>  <PUBCHEM_ATOM_UDEF_STEREO_COUNT>  (15) 
0

>  <PUBCHEM_BOND_DEF_STEREO_COUNT>  (15) 
0

>  <PUBCHEM_BOND_UDEF_STEREO_COUNT>  (15) 
0

>  <PUBCHEM_ISOTOPIC_ATOM_COUNT>  (15) 
0

>  <PUBCHEM_COMPONENT_COUNT>  (15) 
1

>  <PUBCHEM_CACTVS_TAUTO_COUNT>  (15) 
1

>  <PUBCHEM_COORDINATE_TYPE>  (15) 
1
5
255

>  <PUBCHEM_BONDANNOTATIONS>  (15) 
4  8  5

$$$$
15104
     RDKit          2D

 14 13  0  0  1  0  0  0  0  0999 V2000
    4.5981   -0.3450    0.0000 Se  0  0  0  0  0  2  0  0  0  0  0  0
    4.5981    0.6550    0.0000 Se  0  0  0  0  0  2  0  0  0  0  0  0
    2.8660   -3.3450    0.0000 O   0  0  0  0  0  0  0  0  0  0  0  0
    7.1962    2.1550    0.0000 O   0  0  0  0  0  0  0  0  0  0  0  0
    2.0000   -1.8450    0.0000 O   0  0  0  0  0  0  0  0  0  0  0  0
    6.3301    3.6550    0.0000 O   0  0  0  0  0  0  0  0  0  0  0  0
    4.5981   -2.3450    0.0000 N   0  0  0  0  0  0  0  0  0  0  0  0
    4.5981    2.6550    0.0000 N   0  0  0  0  0  0  0  0  0  0  0  0
    3.7320   -1.8450    0.0000 C   0  0  0  0  0  0  0  0  0  0  0  0
    5.4641    2.1550    0.0000 C   0  0  0  0  0  0  0  0  0  0  0  0
    3.7320   -0.8450    0.0000 C   0  0  0  0  0  0  0  0  0  0  0  0
    5.4641    1.1550    0.0000 C   0  0  0  0  0  0  0  0  0  0  0  0
    2.8660   -2.3450    0.0000 C   0  0  0  0  0  0  0  0  0  0  0  0
    6.3301    2.6550    0.0000 C   0  0  0  0  0  0  0  0  0  0  0  0
  1  2  1  0
  1 11  1  0
  2 12  1  0
  3 13  1  0
  4 14  1  0
  5 13  2  0
  6 14  2  0
  7  9  1  0
  8 10  1  0
  9 11  1  0
  9 13  1  0
 10 12  1  0
 10 14  1  0
M  END
>  <PUBCHEM_COMPOUND_CID>  (16) 
15104

>  <PUBCHEM_COMPOUND_CANONICALIZED>  (16) 
1

>  <PUBCHEM_CACTVS_COMPLEXITY>  (16) 
192

>  <PUBCHEM_CACTVS_HBOND_ACCEPTOR>  (16) 
6

>  <PUBCHEM_CACTVS_HBOND_DONOR>  (16) 
4

>  <PUBCHEM_CACTVS_ROTATABLE_BOND>  (16) 
7

>  <PUBCHEM_CACTVS_SUBSKEYS>  (16) 
AAADccBjOAAAAAAAIAAAAAAAAAAAAAAAAAAAAAAAAAAAAAAAAAAAHgCQCAAACCjBgAQACABAAgAIAACQCAAAAAAAAAAAAIGAAAACAAAAAAAAQAAAEAAAAAAAAAAAAAAAAAAAAAAAAAAAAAAAAAAAAAAAAA==

>  <PUBCHEM_IUPAC_OPENEYE_NAME>  (16) 
2-amino-3-[(2-amino-2-carboxy-ethyl)diselanyl]propanoic acid

>  <PUBCHEM_IUPAC_CAS_NAME>  (16) 
2-amino-3-[(2-amino-2-carboxyethyl)diselanyl]propanoic acid

>  <PUBCHEM_IUPAC_NAME_MARKUP>  (16) 
2-amino-3-[(2-amino-2-carboxyethyl)diselanyl]propanoic acid

>  <PUBCHEM_IUPAC_NAME>  (16) 
2-amino-3-[(2-amino-2-carboxyethyl)diselanyl]propanoic acid

>  <PUBCHEM_IUPAC_SYSTEMATIC_NAME>  (16) 
2-azanyl-3-[(2-azanyl-3-oxidanyl-3-oxidanylidene-propyl)diselanyl]propanoic acid

>  <PUBCHEM_IUPAC_TRADITIONAL_NAME>  (16) 
2-amino-3-[(2-amino-2-carboxy-ethyl)diselanyl]propionic acid

>  <PUBCHEM_IUPAC_INCHI>  (16) 
InChI=1S/C6H12N2O4Se2/c7-3(5(9)10)1-13-14-2-4(8)6(11)12/h3-4H,1-2,7-8H2,(H,9,10)(H,11,12)

>  <PUBCHEM_IUPAC_INCHIKEY>  (16) 
JULROCUWKLNBSN-UHFFFAOYSA-N

>  <PUBCHEM_EXACT_MASS>  (16) 
335.91275

>  <PUBCHEM_MOLECULAR_FORMULA>  (16) 
C6H12N2O4Se2

>  <PUBCHEM_MOLECULAR_WEIGHT>  (16) 
334.11

>  <PUBCHEM_OPENEYE_CAN_SMILES>  (16) 
C(C(C(=O)O)N)[Se][Se]CC(C(=O)O)N

>  <PUBCHEM_OPENEYE_ISO_SMILES>  (16) 
C(C(C(=O)O)N)[Se][Se]CC(C(=O)O)N

>  <PUBCHEM_CACTVS_TPSA>  (16) 
127

>  <PUBCHEM_MONOISOTOPIC_WEIGHT>  (16) 
335.91275

>  <PUBCHEM_TOTAL_CHARGE>  (16) 
0

>  <PUBCHEM_HEAVY_ATOM_COUNT>  (16) 
14

>  <PUBCHEM_ATOM_DEF_STEREO_COUNT>  (16) 
0

>  <PUBCHEM_ATOM_UDEF_STEREO_COUNT>  (16) 
2

>  <PUBCHEM_BOND_DEF_STEREO_COUNT>  (16) 
0

>  <PUBCHEM_BOND_UDEF_STEREO_COUNT>  (16) 
0

>  <PUBCHEM_ISOTOPIC_ATOM_COUNT>  (16) 
0

>  <PUBCHEM_COMPONENT_COUNT>  (16) 
1

>  <PUBCHEM_CACTVS_TAUTO_COUNT>  (16) 
1

>  <PUBCHEM_COORDINATE_TYPE>  (16) 
1
5
255

>  <PUBCHEM_BONDANNOTATIONS>  (16) 
9  7  3
10  8  3

$$$$
5951
     RDKit          2D

  7  6  0  0  1  0  0  0  0  0999 V2000
    2.5369   -1.1900    0.0000 O   0  0  0  0  0  0  0  0  0  0  0  0
    5.1350    0.3100    0.0000 O   0  0  0  0  0  0  0  0  0  0  0  0
    4.2690    1.8100    0.0000 O   0  0  0  0  0  0  0  0  0  0  0  0
    2.5369    0.8100    0.0000 N   0  0  0  0  0  0  0  0  0  0  0  0
    3.4030    0.3100    0.0000 C   0  0  0  0  0  0  0  0  0  0  0  0
    3.4030   -0.6900    0.0000 C   0  0  0  0  0  0  0  0  0  0  0  0
    4.2690    0.8100    0.0000 C   0  0  0  0  0  0  0  0  0  0  0  0
  1  6  1  0
  2  7  1  0
  3  7  2  0
  5  4  1  6
  5  6  1  0
  5  7  1  0
M  END
>  <PUBCHEM_COMPOUND_CID>  (17) 
5951

>  <PUBCHEM_COMPOUND_CANONICALIZED>  (17) 
1

>  <PUBCHEM_CACTVS_COMPLEXITY>  (17) 
72.6

>  <PUBCHEM_CACTVS_HBOND_ACCEPTOR>  (17) 
4

>  <PUBCHEM_CACTVS_HBOND_DONOR>  (17) 
3

>  <PUBCHEM_CACTVS_ROTATABLE_BOND>  (17) 
2

>  <PUBCHEM_CACTVS_SUBSKEYS>  (17) 
AAADcYBCMAAAAAAAAAAAAAAAAAAAAAAAAAAAAAAAAAAAAAAAAAAAHgAQCAAACCjhgAYACABAAgAIAACQCAAAAAAAAAAAAIGAAAACEAQAAAAAQAABMAAAAAAAAAAAAAAAAAAAAAAAAAAAAAAAAAAAAAAAAA==

>  <PUBCHEM_IUPAC_OPENEYE_NAME>  (17) 
(2S)-2-amino-3-hydroxy-propanoic acid

>  <PUBCHEM_IUPAC_CAS_NAME>  (17) 
(2S)-2-amino-3-hydroxypropanoic acid

>  <PUBCHEM_IUPAC_NAME_MARKUP>  (17) 
(2<I>S</I>)-2-amino-3-hydroxypropanoic acid

>  <PUBCHEM_IUPAC_NAME>  (17) 
(2S)-2-amino-3-hydroxypropanoic acid

>  <PUBCHEM_IUPAC_SYSTEMATIC_NAME>  (17) 
(2S)-2-azanyl-3-oxidanyl-propanoic acid

>  <PUBCHEM_IUPAC_TRADITIONAL_NAME>  (17) 
(2S)-2-amino-3-hydroxy-propionic acid

>  <PUBCHEM_IUPAC_INCHI>  (17) 
InChI=1S/C3H7NO3/c4-2(1-5)3(6)7/h2,5H,1,4H2,(H,6,7)/t2-/m0/s1

>  <PUBCHEM_IUPAC_INCHIKEY>  (17) 
MTCFGRXMJLQNBG-REOHCLBHSA-N

>  <PUBCHEM_XLOGP3>  (17) 
-3.1

>  <PUBCHEM_EXACT_MASS>  (17) 
105.042593085

>  <PUBCHEM_MOLECULAR_FORMULA>  (17) 
C3H7NO3

>  <PUBCHEM_MOLECULAR_WEIGHT>  (17) 
105.09

>  <PUBCHEM_OPENEYE_CAN_SMILES>  (17) 
C(C(C(=O)O)N)O

>  <PUBCHEM_OPENEYE_ISO_SMILES>  (17) 
C([C@@H](C(=O)O)N)O

>  <PUBCHEM_CACTVS_TPSA>  (17) 
83.6

>  <PUBCHEM_MONOISOTOPIC_WEIGHT>  (17) 
105.042593085

>  <PUBCHEM_TOTAL_CHARGE>  (17) 
0

>  <PUBCHEM_HEAVY_ATOM_COUNT>  (17) 
7

>  <PUBCHEM_ATOM_DEF_STEREO_COUNT>  (17) 
1

>  <PUBCHEM_ATOM_UDEF_STEREO_COUNT>  (17) 
0

>  <PUBCHEM_BOND_DEF_STEREO_COUNT>  (17) 
0

>  <PUBCHEM_BOND_UDEF_STEREO_COUNT>  (17) 
0

>  <PUBCHEM_ISOTOPIC_ATOM_COUNT>  (17) 
0

>  <PUBCHEM_COMPONENT_COUNT>  (17) 
1

>  <PUBCHEM_CACTVS_TAUTO_COUNT>  (17) 
1

>  <PUBCHEM_COORDINATE_TYPE>  (17) 
1
5
255

>  <PUBCHEM_BONDANNOTATIONS>  (17) 
5  4  6

$$$$
6288
     RDKit          2D

  8  7  0  0  1  0  0  0  0  0999 V2000
    6.0010   -0.0950    0.0000 O   0  0  0  0  0  0  0  0  0  0  0  0
    2.5369   -0.0950    0.0000 O   0  0  0  0  0  0  0  0  0  0  0  0
    3.4030    1.4050    0.0000 O   0  0  0  0  0  0  0  0  0  0  0  0
    4.2690   -1.0950    0.0000 N   0  0  0  0  0  0  0  0  0  0  0  0
    5.1350    0.4050    0.0000 C   0  0  0  0  0  0  0  0  0  0  0  0
    4.2690   -0.0950    0.0000 C   0  0  0  0  0  0  0  0  0  0  0  0
    5.1350    1.4050    0.0000 C   0  0  0  0  0  0  0  0  0  0  0  0
    3.4030    0.4050    0.0000 C   0  0  0  0  0  0  0  0  0  0  0  0
  5  1  1  0
  2  8  1  0
  3  8  2  0
  6  4  1  6
  5  6  1  0
  5  7  1  1
  6  8  1  0
M  END
>  <PUBCHEM_COMPOUND_CID>  (18) 
6288

>  <PUBCHEM_COMPOUND_CANONICALIZED>  (18) 
1

>  <PUBCHEM_CACTVS_COMPLEXITY>  (18) 
93.3

>  <PUBCHEM_CACTVS_HBOND_ACCEPTOR>  (18) 
4

>  <PUBCHEM_CACTVS_HBOND_DONOR>  (18) 
3

>  <PUBCHEM_CACTVS_ROTATABLE_BOND>  (18) 
2

>  <PUBCHEM_CACTVS_SUBSKEYS>  (18) 
AAADccBiMAAAAAAAAAAAAAAAAAAAAAAAAAAAAAAAAAAAAAAAAAAAHgAQCAAACDzhgAYCCABAAgAIAACQCAAAAAAAAAAAAIGAAAACEBQAAAAAQAAFMAAAAAAAAAAAAAAAAAAAAAAAAAAAAAAAAAAAAAAAAA==

>  <PUBCHEM_IUPAC_OPENEYE_NAME>  (18) 
(2S,3R)-2-amino-3-hydroxy-butanoic acid

>  <PUBCHEM_IUPAC_CAS_NAME>  (18) 
(2S,3R)-2-amino-3-hydroxybutanoic acid

>  <PUBCHEM_IUPAC_NAME_MARKUP>  (18) 
(2<I>S</I>,3<I>R</I>)-2-amino-3-hydroxybutanoic acid

>  <PUBCHEM_IUPAC_NAME>  (18) 
(2S,3R)-2-amino-3-hydroxybutanoic acid

>  <PUBCHEM_IUPAC_SYSTEMATIC_NAME>  (18) 
(2S,3R)-2-azanyl-3-oxidanyl-butanoic acid

>  <PUBCHEM_IUPAC_TRADITIONAL_NAME>  (18) 
(2S,3R)-2-amino-3-hydroxy-butyric acid

>  <PUBCHEM_IUPAC_INCHI>  (18) 
InChI=1S/C4H9NO3/c1-2(6)3(5)4(7)8/h2-3,6H,5H2,1H3,(H,7,8)/t2-,3+/m1/s1

>  <PUBCHEM_IUPAC_INCHIKEY>  (18) 
AYFVYJQAPQTCCC-GBXIJSLDSA-N

>  <PUBCHEM_XLOGP3>  (18) 
-2.9

>  <PUBCHEM_EXACT_MASS>  (18) 
119.058243149

>  <PUBCHEM_MOLECULAR_FORMULA>  (18) 
C4H9NO3

>  <PUBCHEM_MOLECULAR_WEIGHT>  (18) 
119.12

>  <PUBCHEM_OPENEYE_CAN_SMILES>  (18) 
CC(C(C(=O)O)N)O

>  <PUBCHEM_OPENEYE_ISO_SMILES>  (18) 
C[C@H]([C@@H](C(=O)O)N)O

>  <PUBCHEM_CACTVS_TPSA>  (18) 
83.6

>  <PUBCHEM_MONOISOTOPIC_WEIGHT>  (18) 
119.058243149

>  <PUBCHEM_TOTAL_CHARGE>  (18) 
0

>  <PUBCHEM_HEAVY_ATOM_COUNT>  (18) 
8

>  <PUBCHEM_ATOM_DEF_STEREO_COUNT>  (18) 
2

>  <PUBCHEM_ATOM_UDEF_STEREO_COUNT>  (18) 
0

>  <PUBCHEM_BOND_DEF_STEREO_COUNT>  (18) 
0

>  <PUBCHEM_BOND_UDEF_STEREO_COUNT>  (18) 
0

>  <PUBCHEM_ISOTOPIC_ATOM_COUNT>  (18) 
0

>  <PUBCHEM_COMPONENT_COUNT>  (18) 
1

>  <PUBCHEM_CACTVS_TAUTO_COUNT>  (18) 
1

>  <PUBCHEM_COORDINATE_TYPE>  (18) 
1
5
255

>  <PUBCHEM_BONDANNOTATIONS>  (18) 
5  1  5
6  4  6

$$$$
6305
     RDKit          2D

 15 16  0  0  1  0  0  0  0  0999 V2000
    7.2566    1.9615    0.0000 O   0  0  0  0  0  0  0  0  0  0  0  0
    5.6103    2.4996    0.0000 O   0  0  0  0  0  0  0  0  0  0  0  0
    4.6783   -1.9615    0.0000 N   0  0  0  0  0  0  0  0  0  0  0  0
    6.6353    0.0604    0.0000 N   0  0  0  0  0  0  0  0  0  0  0  0
    4.6783   -0.3520    0.0000 C   0  0  0  0  0  0  0  0  0  0  0  0
    4.9889    0.5985    0.0000 C   0  0  0  0  0  0  0  0  0  0  0  0
    3.7320   -0.6567    0.0000 C   0  0  0  0  0  0  0  0  0  0  0  0
    5.9674    0.8047    0.0000 C   0  0  0  0  0  0  0  0  0  0  0  0
    3.7320   -1.6567    0.0000 C   0  0  0  0  0  0  0  0  0  0  0  0
    5.2619   -1.1567    0.0000 C   0  0  0  0  0  0  0  0  0  0  0  0
    2.8660   -0.1567    0.0000 C   0  0  0  0  0  0  0  0  0  0  0  0
    2.8660   -2.1567    0.0000 C   0  0  0  0  0  0  0  0  0  0  0  0
    6.2781    1.7552    0.0000 C   0  0  0  0  0  0  0  0  0  0  0  0
    2.0000   -0.6567    0.0000 C   0  0  0  0  0  0  0  0  0  0  0  0
    2.0000   -1.6567    0.0000 C   0  0  0  0  0  0  0  0  0  0  0  0
  1 13  1  0
  2 13  2  0
  3  9  1  0
  3 10  1  0
  8  4  1  1
  5  6  1  0
  5  7  1  0
  5 10  2  0
  6  8  1  0
  7  9  2  0
  7 11  1  0
  8 13  1  0
  9 12  1  0
 11 14  2  0
 12 15  2  0
 14 15  1  0
M  END
>  <PUBCHEM_COMPOUND_CID>  (19) 
6305

>  <PUBCHEM_COMPOUND_CANONICALIZED>  (19) 
1

>  <PUBCHEM_CACTVS_COMPLEXITY>  (19) 
245

>  <PUBCHEM_CACTVS_HBOND_ACCEPTOR>  (19) 
3

>  <PUBCHEM_CACTVS_HBOND_DONOR>  (19) 
3

>  <PUBCHEM_CACTVS_ROTATABLE_BOND>  (19) 
3

>  <PUBCHEM_CACTVS_SUBSKEYS>  (19) 
AAADccBzMAAAAAAAAAAAAAAAAAAAAWAAAAAwAAAAAAAAAFgB8AAAHgAQCAAADCjBngQ8yPLJkgCoAzT3TACCgCAxAiAI2aG4ZJgKIPLAkZGEYAhkkADIyAeY2fKOgAAAAAACAAAAAAAAAAQAAAAAAAAAAA==

>  <PUBCHEM_IUPAC_OPENEYE_NAME>  (19) 
(2S)-2-amino-3-(1H-indol-3-yl)propanoic acid

>  <PUBCHEM_IUPAC_CAS_NAME>  (19) 
(2S)-2-amino-3-(1H-indol-3-yl)propanoic acid

>  <PUBCHEM_IUPAC_NAME_MARKUP>  (19) 
(2<I>S</I>)-2-amino-3-(1<I>H</I>-indol-3-yl)propanoic acid

>  <PUBCHEM_IUPAC_NAME>  (19) 
(2S)-2-amino-3-(1H-indol-3-yl)propanoic acid

>  <PUBCHEM_IUPAC_SYSTEMATIC_NAME>  (19) 
(2S)-2-azanyl-3-(1H-indol-3-yl)propanoic acid

>  <PUBCHEM_IUPAC_TRADITIONAL_NAME>  (19) 
(2S)-2-amino-3-(1H-indol-3-yl)propionic acid

>  <PUBCHEM_IUPAC_INCHI>  (19) 
InChI=1S/C11H12N2O2/c12-9(11(14)15)5-7-6-13-10-4-2-1-3-8(7)10/h1-4,6,9,13H,5,12H2,(H,14,15)/t9-/m0/s1

>  <PUBCHEM_IUPAC_INCHIKEY>  (19) 
QIVBCDIJIAJPQS-VIFPVBQESA-N

>  <PUBCHEM_XLOGP3>  (19) 
-1.1

>  <PUBCHEM_EXACT_MASS>  (19) 
204.089877630

>  <PUBCHEM_MOLECULAR_FORMULA>  (19) 
C11H12N2O2

>  <PUBCHEM_MOLECULAR_WEIGHT>  (19) 
204.22

>  <PUBCHEM_OPENEYE_CAN_SMILES>  (19) 
C1=CC=C2C(=C1)C(=CN2)CC(C(=O)O)N

>  <PUBCHEM_OPENEYE_ISO_SMILES>  (19) 
C1=CC=C2C(=C1)C(=CN2)C[C@@H](C(=O)O)N

>  <PUBCHEM_CACTVS_TPSA>  (19) 
79.1

>  <PUBCHEM_MONOISOTOPIC_WEIGHT>  (19) 
204.089877630

>  <PUBCHEM_TOTAL_CHARGE>  (19) 
0

>  <PUBCHEM_HEAVY_ATOM_COUNT>  (19) 
15

>  <PUBCHEM_ATOM_DEF_STEREO_COUNT>  (19) 
1

>  <PUBCHEM_ATOM_UDEF_STEREO_COUNT>  (19) 
0

>  <PUBCHEM_BOND_DEF_STEREO_COUNT>  (19) 
0

>  <PUBCHEM_BOND_UDEF_STEREO_COUNT>  (19) 
0

>  <PUBCHEM_ISOTOPIC_ATOM_COUNT>  (19) 
0

>  <PUBCHEM_COMPONENT_COUNT>  (19) 
1

>  <PUBCHEM_CACTVS_TAUTO_COUNT>  (19) 
-1

>  <PUBCHEM_COORDINATE_TYPE>  (19) 
1
5
255

>  <PUBCHEM_BONDANNOTATIONS>  (19) 
11  14  8
12  15  8
14  15  8
3  10  8
3  9  8
8  4  5
5  10  8
5  7  8
7  11  8
7  9  8
9  12  8

$$$$
6057
     RDKit          2D

 13 13  0  0  1  0  0  0  0  0999 V2000
    4.5981    2.8450    0.0000 O   0  0  0  0  0  0  0  0  0  0  0  0
    2.8660   -3.1550    0.0000 O   0  0  0  0  0  0  0  0  0  0  0  0
    2.8660    2.8450    0.0000 O   0  0  0  0  0  0  0  0  0  0  0  0
    4.5981    0.8450    0.0000 N   0  0  0  0  0  0  0  0  0  0  0  0
    2.8660    0.8450    0.0000 C   0  0  0  0  0  0  0  0  0  0  0  0
    3.7320    1.3450    0.0000 C   0  0  0  0  0  0  0  0  0  0  0  0
    2.8660   -0.1550    0.0000 C   0  0  0  0  0  0  0  0  0  0  0  0
    2.0000   -0.6550    0.0000 C   0  0  0  0  0  0  0  0  0  0  0  0
    3.7320   -0.6550    0.0000 C   0  0  0  0  0  0  0  0  0  0  0  0
    3.7320    2.3450    0.0000 C   0  0  0  0  0  0  0  0  0  0  0  0
    2.0000   -1.6550    0.0000 C   0  0  0  0  0  0  0  0  0  0  0  0
    3.7320   -1.6550    0.0000 C   0  0  0  0  0  0  0  0  0  0  0  0
    2.8660   -2.1550    0.0000 C   0  0  0  0  0  0  0  0  0  0  0  0
  1 10  1  0
  2 13  1  0
  3 10  2  0
  6  4  1  1
  5  6  1  0
  5  7  1  0
  6 10  1  0
  7  8  2  0
  7  9  1  0
  8 11  1  0
  9 12  2  0
 11 13  2  0
 12 13  1  0
M  END
>  <PUBCHEM_COMPOUND_CID>  (20) 
6057

>  <PUBCHEM_COMPOUND_CANONICALIZED>  (20) 
1

>  <PUBCHEM_CACTVS_COMPLEXITY>  (20) 
176

>  <PUBCHEM_CACTVS_HBOND_ACCEPTOR>  (20) 
4

>  <PUBCHEM_CACTVS_HBOND_DONOR>  (20) 
3

>  <PUBCHEM_CACTVS_ROTATABLE_BOND>  (20) 
3

>  <PUBCHEM_CACTVS_SUBSKEYS>  (20) 
AAADccByMAAAAAAAAAAAAAAAAAAAAAAAAAAwAAAAAAAAAAABAAAAHgAQCAAADCzBmAQwDoBAAgCIAiDSCAACAAAgIAAIiIGGCIgKJjKCkROAcAAk0BEImAeYyKCOIAAAAAAAAABAAAAAAAAAAAAAAAAAAA==

>  <PUBCHEM_IUPAC_OPENEYE_NAME>  (20) 
(2S)-2-amino-3-(4-hydroxyphenyl)propanoic acid

>  <PUBCHEM_IUPAC_CAS_NAME>  (20) 
(2S)-2-amino-3-(4-hydroxyphenyl)propanoic acid

>  <PUBCHEM_IUPAC_NAME_MARKUP>  (20) 
(2<I>S</I>)-2-amino-3-(4-hydroxyphenyl)propanoic acid

>  <PUBCHEM_IUPAC_NAME>  (20) 
(2S)-2-amino-3-(4-hydroxyphenyl)propanoic acid

>  <PUBCHEM_IUPAC_SYSTEMATIC_NAME>  (20) 
(2S)-2-azanyl-3-(4-hydroxyphenyl)propanoic acid

>  <PUBCHEM_IUPAC_TRADITIONAL_NAME>  (20) 
(2S)-2-amino-3-(4-hydroxyphenyl)propionic acid

>  <PUBCHEM_IUPAC_INCHI>  (20) 
InChI=1S/C9H11NO3/c10-8(9(12)13)5-6-1-3-7(11)4-2-6/h1-4,8,11H,5,10H2,(H,12,13)/t8-/m0/s1

>  <PUBCHEM_IUPAC_INCHIKEY>  (20) 
OUYCCCASQSFEME-QMMMGPOBSA-N

>  <PUBCHEM_XLOGP3>  (20) 
-2.3

>  <PUBCHEM_EXACT_MASS>  (20) 
181.07389321

>  <PUBCHEM_MOLECULAR_FORMULA>  (20) 
C9H11NO3

>  <PUBCHEM_MOLECULAR_WEIGHT>  (20) 
181.19

>  <PUBCHEM_OPENEYE_CAN_SMILES>  (20) 
C1=CC(=CC=C1CC(C(=O)O)N)O

>  <PUBCHEM_OPENEYE_ISO_SMILES>  (20) 
C1=CC(=CC=C1C[C@@H](C(=O)O)N)O

>  <PUBCHEM_CACTVS_TPSA>  (20) 
83.6

>  <PUBCHEM_MONOISOTOPIC_WEIGHT>  (20) 
181.07389321

>  <PUBCHEM_TOTAL_CHARGE>  (20) 
0

>  <PUBCHEM_HEAVY_ATOM_COUNT>  (20) 
13

>  <PUBCHEM_ATOM_DEF_STEREO_COUNT>  (20) 
1

>  <PUBCHEM_ATOM_UDEF_STEREO_COUNT>  (20) 
0

>  <PUBCHEM_BOND_DEF_STEREO_COUNT>  (20) 
0

>  <PUBCHEM_BOND_UDEF_STEREO_COUNT>  (20) 
0

>  <PUBCHEM_ISOTOPIC_ATOM_COUNT>  (20) 
0

>  <PUBCHEM_COMPONENT_COUNT>  (20) 
1

>  <PUBCHEM_CACTVS_TAUTO_COUNT>  (20) 
4

>  <PUBCHEM_COORDINATE_TYPE>  (20) 
1
5
255

>  <PUBCHEM_BONDANNOTATIONS>  (20) 
11  13  8
12  13  8
6  4  5
7  8  8
7  9  8
8  11  8
9  12  8

$$$$
6287
     RDKit          2D

  8  7  0  0  1  0  0  0  0  0999 V2000
    2.5369   -0.0950    0.0000 O   0  0  0  0  0  0  0  0  0  0  0  0
    3.4030    1.4050    0.0000 O   0  0  0  0  0  0  0  0  0  0  0  0
    4.2690   -1.0950    0.0000 N   0  0  0  0  0  0  0  0  0  0  0  0
    5.1350    0.4050    0.0000 C   0  0  0  0  0  0  0  0  0  0  0  0
    4.2690   -0.0950    0.0000 C   0  0  0  0  0  0  0  0  0  0  0  0
    6.0010   -0.0950    0.0000 C   0  0  0  0  0  0  0  0  0  0  0  0
    5.1350    1.4050    0.0000 C   0  0  0  0  0  0  0  0  0  0  0  0
    3.4030    0.4050    0.0000 C   0  0  0  0  0  0  0  0  0  0  0  0
  1  8  1  0
  2  8  2  0
  5  3  1  6
  4  5  1  0
  4  6  1  0
  4  7  1  0
  5  8  1  0
M  END
>  <PUBCHEM_COMPOUND_CID>  (21) 
6287

>  <PUBCHEM_COMPOUND_CANONICALIZED>  (21) 
1

>  <PUBCHEM_CACTVS_COMPLEXITY>  (21) 
90.4

>  <PUBCHEM_CACTVS_HBOND_ACCEPTOR>  (21) 
3

>  <PUBCHEM_CACTVS_HBOND_DONOR>  (21) 
2

>  <PUBCHEM_CACTVS_ROTATABLE_BOND>  (21) 
2

>  <PUBCHEM_CACTVS_SUBSKEYS>  (21) 
AAADccBiMAAAAAAAAAAAAAAAAAAAAAAAAAAAAAAAAAAAAAAAAAAAHgAQCAAADSjBgAQCCABAAgAIAACQCAAAAAAAAAAAAIGAAAACABAAAAAAQAAEEAAAAAAAAAAIAAAAAAAAAAAAAAAAAAAAAAAAAAAAAA==

>  <PUBCHEM_IUPAC_OPENEYE_NAME>  (21) 
(2S)-2-amino-3-methyl-butanoic acid

>  <PUBCHEM_IUPAC_CAS_NAME>  (21) 
(2S)-2-amino-3-methylbutanoic acid

>  <PUBCHEM_IUPAC_NAME_MARKUP>  (21) 
(2<I>S</I>)-2-amino-3-methylbutanoic acid

>  <PUBCHEM_IUPAC_NAME>  (21) 
(2S)-2-amino-3-methylbutanoic acid

>  <PUBCHEM_IUPAC_SYSTEMATIC_NAME>  (21) 
(2S)-2-azanyl-3-methyl-butanoic acid

>  <PUBCHEM_IUPAC_TRADITIONAL_NAME>  (21) 
(2S)-2-amino-3-methyl-butyric acid

>  <PUBCHEM_IUPAC_INCHI>  (21) 
InChI=1S/C5H11NO2/c1-3(2)4(6)5(7)8/h3-4H,6H2,1-2H3,(H,7,8)/t4-/m0/s1

>  <PUBCHEM_IUPAC_INCHIKEY>  (21) 
KZSNJWFQEVHDMF-BYPYZUCNSA-N

>  <PUBCHEM_XLOGP3>  (21) 
-2.3

>  <PUBCHEM_EXACT_MASS>  (21) 
117.078978594

>  <PUBCHEM_MOLECULAR_FORMULA>  (21) 
C5H11NO2

>  <PUBCHEM_MOLECULAR_WEIGHT>  (21) 
117.15

>  <PUBCHEM_OPENEYE_CAN_SMILES>  (21) 
CC(C)C(C(=O)O)N

>  <PUBCHEM_OPENEYE_ISO_SMILES>  (21) 
CC(C)[C@@H](C(=O)O)N

>  <PUBCHEM_CACTVS_TPSA>  (21) 
63.3

>  <PUBCHEM_MONOISOTOPIC_WEIGHT>  (21) 
117.078978594

>  <PUBCHEM_TOTAL_CHARGE>  (21) 
0

>  <PUBCHEM_HEAVY_ATOM_COUNT>  (21) 
8

>  <PUBCHEM_ATOM_DEF_STEREO_COUNT>  (21) 
1

>  <PUBCHEM_ATOM_UDEF_STEREO_COUNT>  (21) 
0

>  <PUBCHEM_BOND_DEF_STEREO_COUNT>  (21) 
0

>  <PUBCHEM_BOND_UDEF_STEREO_COUNT>  (21) 
0

>  <PUBCHEM_ISOTOPIC_ATOM_COUNT>  (21) 
0

>  <PUBCHEM_COMPONENT_COUNT>  (21) 
1

>  <PUBCHEM_CACTVS_TAUTO_COUNT>  (21) 
1

>  <PUBCHEM_COORDINATE_TYPE>  (21) 
1
5
255

>  <PUBCHEM_BONDANNOTATIONS>  (21) 
5  3  6

$$$$
